geometry optimzed in LAMMPS
_audit_creation_date              2020-12-01 
_audit_creation_method            'lammps2cif' 
_symmetry_space_group_name_H-M    'P1' 
_symmetry_Int_Tables_number       1 
_symmetry_cell_setting            triclinic 
loop_ 
_symmetry_equiv_pos_as_xyz 
  x,y,z 
_cell_length_a                    38.66934946 
_cell_length_b                    38.3388372071786 
_cell_length_c                    38.50715931418413 
_cell_angle_alpha                 90.02988540637214 
_cell_angle_beta                  89.9614145805719 
_cell_angle_gamma                 90.0255340550782 
loop_ 
_atom_site_label 
_atom_site_type_symbol 
_atom_site_fract_x 
_atom_site_fract_y 
_atom_site_fract_z 
_atom_site_charge 
C1          C  0.34066993  0.22297933  0.52790940     0.04100
C2          C  0.33274583  0.23868872  0.49631984    -0.12100
C3          C  0.34189690  0.22247526  0.46515055     0.01600
C4          C  0.36181893  0.19180775  0.46593664    -0.10600
C5          C  0.36975501  0.17597797  0.49775094     0.04000
C6          C  0.36104161  0.19290688  0.52867457    -0.10000
H7          H  0.31441524  0.26009750  0.49602722     0.09600
H8          H  0.36761645  0.17834754  0.44189430     0.07200
H9          H  0.36554217  0.18013610  0.55339575     0.07000
C10         C  0.14642540  0.40799273  0.46431903     0.04100
C11         C  0.16302896  0.39758509  0.49532183    -0.12100
C12         C  0.14823479  0.40419805  0.52819223     0.01600
C13         C  0.11618032  0.42206927  0.53000058    -0.10600
C14         C  0.09886787  0.43341490  0.49959397     0.04000
C15         C  0.11454677  0.42626077  0.46701597    -0.10000
H16         H  0.18665248  0.38246356  0.49388799     0.09600
H17         H  0.10433598  0.42630471  0.55515406     0.07200
H18         H  0.10167432  0.43464210  0.44349793     0.07000
C19         C  0.14008830  0.52385718  0.37198478     0.04100
C20         C  0.10985115  0.52244667  0.39192359    -0.12100
C21         C  0.09138402  0.55301344  0.39883819     0.01600
C22         C  0.10592889  0.58532874  0.39001850    -0.10600
C23         C  0.13740053  0.58673109  0.37184279     0.04000
C24         C  0.15514170  0.55595648  0.36441402    -0.10000
H25         H  0.09796675  0.49728071  0.39675267     0.09600
H26         H  0.09119248  0.60906844  0.39378712     0.07200
H27         H  0.17713789  0.55683862  0.34691999     0.07000
C28         C  0.32097237  0.52553983  0.17365395     0.04100
C29         C  0.33916789  0.52518467  0.14168173    -0.12100
C30         C  0.35078743  0.55629799  0.12559590     0.01600
C31         C  0.34340674  0.58845506  0.14260879    -0.10600
C32         C  0.32483079  0.58969412  0.17471189     0.04000
C33         C  0.31428658  0.55785598  0.18975729    -0.10000
H34         H  0.34379262  0.50002549  0.12882027     0.09600
H35         H  0.35198023  0.61223597  0.13095841     0.07200
H36         H  0.29880450  0.55816983  0.21347631     0.07000
C37         C  0.48090157  0.21896849  0.34809285     0.04100
C38         C  0.48139361  0.18564900  0.36318079    -0.12100
C39         C  0.45156732  0.17024346  0.37695136     0.01600
C40         C  0.41980086  0.18832618  0.37380369    -0.10600
C41         C  0.41859406  0.22185552  0.35805240     0.04000
C42         C  0.44952225  0.23719642  0.34640634    -0.10000
H43         H  0.50531438  0.17097766  0.36327942     0.09600
H44         H  0.39609558  0.17613509  0.38257868     0.07200
H45         H  0.44874993  0.26258095  0.33410273     0.07000
C46         C  0.45566383  0.41506158  0.17215853     0.04100
C47         C  0.48715946  0.41090052  0.18970954    -0.12100
C48         C  0.51823127  0.42279625  0.17489580     0.01600
C49         C  0.51721935  0.44179610  0.14347855    -0.10600
C50         C  0.48564421  0.44695214  0.12614442     0.04000
C51         C  0.45541326  0.43299213  0.14045949    -0.10000
H52         H  0.48791625  0.39619056  0.21369573     0.09600
H53         H  0.54108942  0.45086792  0.13179433     0.07200
H54         H  0.43160418  0.43456565  0.12580532     0.07000
C55         C  0.11458885  0.37850141  0.96358233     0.04100
C56         C  0.12515820  0.36248422  0.99493397    -0.12100
C57         C  0.11831200  0.37769267  0.02761890     0.01600
C58         C  0.10008202  0.40981318  0.02901081    -0.10600
C59         C  0.08845674  0.42680476  0.99844746     0.04000
C60         C  0.09582427  0.41052265  0.96597843    -0.10000
H61         H  0.14063140  0.33896230  0.99397718     0.09600
H62         H  0.09560423  0.42190929  0.05404366     0.07200
H63         H  0.08700880  0.42298493  0.94238384     0.07000
C64         C  0.30703825  0.18552252  0.96665701     0.04100
C65         C  0.33891789  0.16801070  0.96748342    -0.12100
C66         C  0.35414301  0.15946118  0.99942885     0.01600
C67         C  0.33653465  0.16712823  0.03024695    -0.10600
C68         C  0.30541000  0.18565981  0.02923244     0.04000
C69         C  0.28965725  0.19261314  0.99755208    -0.10000
H70         H  0.35310005  0.16404493  0.94352914     0.09600
H71         H  0.34899067  0.16285581  0.05510996     0.07200
H72         H  0.26694286  0.20922385  0.99702505     0.07000
O73         O  0.10775692  0.33833650  0.74236130    -0.87300
C74         C  0.24775291  0.24625338  0.63938945     1.12800
O75         O  0.18686185  0.33167090  0.74405075    -1.35100
O76         O  0.17506576  0.21769189  0.67797811    -0.88700
O77         O  0.13141875  0.37185427  0.78355447    -0.89400
O78         O  0.16841505  0.29220487  0.81804544    -0.78200
O79         O  0.14407433  0.28167802  0.70661646    -1.00300
C80         C  0.23546463  0.21842399  0.79040339     1.22800
O81         O  0.24429077  0.30288142  0.77507107    -1.35200
Mn82       Mn  0.23920953  0.32470481  0.72322498     1.82100
O83         O  0.20518734  0.23073671  0.79347616    -0.77300
O84         O  0.21096998  0.19381432  0.71655876    -0.86700
C85         C  0.30354094  0.28278858  0.70492066     1.13900
C86         C  0.18439465  0.19244591  0.69708257     1.08600
O87         O  0.26280552  0.37481474  0.73502053    -0.78200
O88         O  0.21653994  0.27292545  0.71713399    -1.31900
O89         O  0.23585181  0.37526236  0.78327498    -0.97400
C90         C  0.26842956  0.27384582  0.85520574     1.07400
Mn91       Mn  0.25111319  0.23056523  0.71845684     1.48600
O92         O  0.24507829  0.29697812  0.85415838    -0.86600
Mn93       Mn  0.18420486  0.37377126  0.77899413     1.49600
O94         O  0.15053457  0.38591323  0.69798936    -0.90500
C95         C  0.12865682  0.26285442  0.72692048     1.20500
C96         C  0.16643199  0.41203598  0.71043093     1.12600
Mn97       Mn  0.19306005  0.28027242  0.76810273     1.81000
O98         O  0.28891953  0.26375027  0.72546700    -0.95700
Mn99       Mn  0.14705890  0.33246248  0.70623223     1.49300
C100        C  0.10621147  0.35588075  0.77012825     1.09100
Mn101      Mn  0.28693090  0.26898743  0.77598701     1.49900
C102        C  0.32302789  0.33356250  0.80118265     1.12000
O103        O  0.19255591  0.34103501  0.81728649    -1.01500
O104        O  0.25723375  0.22842856  0.66530913    -0.91100
C105        C  0.17212168  0.32194070  0.83187566     1.23300
O106        O  0.25356808  0.23222679  0.76883681    -1.01900
O107        O  0.22182660  0.26632506  0.63920500    -0.89300
O108        O  0.32302497  0.30911849  0.77887988    -0.88900
O109        O  0.18174776  0.41114890  0.73960250    -0.88900
Mn110      Mn  0.18207850  0.27124692  0.67486635     1.47900
O111        O  0.28979296  0.31249560  0.70071415    -0.77400
C112        C  0.25723333  0.38929209  0.76403638     1.16400
O113        O  0.14312070  0.25759552  0.75598145    -0.76100
O114        O  0.22967410  0.34706358  0.67235298    -0.75700
Mn115      Mn  0.24324418  0.33685346  0.81770814     1.51100
O116        O  0.28705144  0.26562121  0.82951509    -0.88100
O117        O  0.18133879  0.32181155  0.67097459    -0.95600
O118        O  0.29651893  0.34157558  0.81886203    -0.90600
C119        C  0.20170486  0.34113161  0.65641180     1.14200
C120        C  0.09611004  0.02492894  0.32748890     0.04100
C121        C  0.10373333  0.05664295  0.31162339    -0.12100
C122        C  0.09638474  0.08785743  0.32874997     0.01600
C123        C  0.07769383  0.08719393  0.36006678    -0.10600
C124        C  0.06937091  0.05525436  0.37566669     0.04000
C125        C  0.07676402  0.02420141  0.35813271    -0.10000
H126        H  0.12127143  0.05687302  0.28960789     0.09600
H127        H  0.07364843  0.11127061  0.37422843     0.07200
H128        H  0.07257647  0.99934182  0.37089820     0.07000
C129        C  0.29355329  0.02592754  0.14690503     0.04100
C130        C  0.32488694  0.02489621  0.12767395    -0.12100
C131        C  0.34235071  0.05562291  0.11729219     0.01600
C132        C  0.32684230  0.08818185  0.12562191    -0.10600
C133        C  0.29503263  0.09031276  0.14428298     0.04000
C134        C  0.27887329  0.05880874  0.15453793    -0.10000
H135        H  0.33623604  0.99982535  0.12149497     0.09600
H136        H  0.33965738  0.11198761  0.11767534     0.07200
H137        H  0.25575079  0.05993101  0.17038009     0.07000
O138        O  0.25707471  0.81092159  0.14290740    -0.87300
C139        C  0.16931453  0.69896389  0.28088498     1.12800
O140        O  0.25299519  0.80899082  0.22214887    -1.35100
O141        O  0.14257654  0.73534150  0.21125639    -0.88700
O142        O  0.28885773  0.85375612  0.16629575    -0.89400
O143        O  0.21083155  0.88154971  0.20538986    -0.78200
O144        O  0.20439980  0.76949476  0.18053788    -1.00300
C145        C  0.13668388  0.84999968  0.26889051     1.22800
O146        O  0.22344246  0.83747694  0.28008452    -1.35200
Mn147      Mn  0.24654011  0.78573784  0.27368619     1.82100
O148        O  0.15057411  0.85356520  0.23934157    -0.77300
O149        O  0.11633324  0.77622238  0.24260890    -0.86700
C150        C  0.20372397  0.76378108  0.33554245     1.13900
C151        C  0.11661432  0.75408558  0.21806486     1.08600
O152        O  0.29675132  0.79829507  0.29588216    -0.78200
O153        O  0.19514514  0.77863253  0.25097784    -1.31900
O154        O  0.29651816  0.84761263  0.27107784    -0.97400
C155        C  0.19257526  0.91665390  0.30496994     1.07400
Mn156      Mn  0.15145739  0.77848425  0.28346621     1.48600
O157        O  0.21907914  0.91629230  0.28570100    -0.86600
Mn158      Mn  0.29280968  0.84698863  0.22027763     1.49600
O159        O  0.30735580  0.76896695  0.18240343    -0.90500
C160        C  0.18425916  0.78786577  0.16495093     1.20500
C161        C  0.33259569  0.78236146  0.19837183     1.12600
Mn162      Mn  0.20098150  0.83049016  0.22834439     1.81000
O163        O  0.18517051  0.78604742  0.32206890    -0.95700
Mn164      Mn  0.25465711  0.77315620  0.18072476     1.49300
C165        C  0.27345847  0.83935381  0.14087039     1.09100
Mn166      Mn  0.18834562  0.83809620  0.32190869     1.49900
C167        C  0.25448853  0.85967324  0.36055660     1.12000
O168        O  0.25880250  0.88229368  0.23073018    -1.01500
O169        O  0.15013693  0.72467460  0.28819833    -0.91100
C170        C  0.23924640  0.89693394  0.21086453     1.23300
O171        O  0.15103967  0.82956802  0.28823012    -1.01900
O172        O  0.19211608  0.69952563  0.25729819    -0.89300
O173        O  0.22727001  0.84109507  0.35937284    -0.88900
O174        O  0.33163692  0.81068044  0.21504279    -0.88900
Mn175      Mn  0.19525377  0.73575486  0.21739809     1.47900
O176        O  0.23401243  0.76069034  0.32322125    -0.77400
C177        C  0.31170622  0.82724016  0.29014496     1.16400
O178        O  0.17842094  0.81756836  0.17814554    -0.76100
O179        O  0.27129370  0.73507774  0.26304280    -0.75700
Mn180      Mn  0.25840001  0.87968828  0.28119698     1.51100
O181        O  0.18212218  0.89100190  0.32251543    -0.88100
O182        O  0.24690773  0.73378757  0.21389725    -0.95600
O183        O  0.26537558  0.87716758  0.33474943    -0.90600
C184        C  0.26767660  0.72002967  0.23396563     1.14200
C185        C  0.95597216  0.20410729  0.33545168     0.04100
C186        C  0.98740969  0.20823748  0.31785545    -0.12100
C187        C  0.01824223  0.19451124  0.33142671     0.01600
C188        C  0.01719796  0.17655961  0.36369229    -0.10600
C189        C  0.98552242  0.17180917  0.38149968     0.04000
C190        C  0.95514087  0.18445949  0.36618190    -0.10000
H191        H  0.98840978  0.22462208  0.29495680     0.09600
H192        H  0.04099436  0.16732722  0.37527256     0.07200
H193        H  0.93060158  0.18062226  0.37922681     0.07000
C194        C  0.98159041  0.38485585  0.14291260     0.04100
C195        C  0.98294008  0.41611768  0.12422417    -0.12100
C196        C  0.95310003  0.43072070  0.10969721     0.01600
C197        C  0.92126931  0.41342084  0.11411891    -0.10600
C198        C  0.91978833  0.38162003  0.13256992     0.04000
C199        C  0.95012969  0.36733351  0.14639644    -0.10000
H200        H  0.00731228  0.42996942  0.12243094     0.09600
H201        H  0.89763484  0.42514493  0.10454888     0.07200
H202        H  0.94885513  0.34372028  0.16183309     0.07000
O203        O  0.80452537  0.26421257  0.31568026    -0.87300
C204        C  0.60972012  0.24889794  0.27771167     1.12800
O205        O  0.74849709  0.30345563  0.27534155    -1.35100
O206        O  0.68749162  0.19396129  0.24304757    -0.88700
O207        O  0.82814684  0.30076090  0.27720375    -0.89400
O208        O  0.78968573  0.29198376  0.19958215    -0.78200
O209        O  0.74108241  0.23190598  0.28433559    -1.00300
C210        C  0.70086489  0.25779729  0.16271732     1.22800
O211        O  0.71817621  0.33115169  0.21694688    -1.35200
Mn212      Mn  0.69677999  0.32465899  0.26852491     1.82100
O213        O  0.73037995  0.25538870  0.17608907    -0.77300
O214        O  0.64782857  0.21749633  0.20801478    -0.86700
C215        C  0.63442026  0.34444966  0.22792069     1.13900
C216        C  0.66576530  0.19191717  0.21858020     1.08600
O217        O  0.70712398  0.37404837  0.29203368    -0.78200
O218        O  0.69011192  0.27299655  0.24694237    -1.31900
O219        O  0.75530574  0.37497631  0.26692562    -0.97400
C220        C  0.74702505  0.35587976  0.13634745     1.07400
Mn221      Mn  0.64803850  0.27183104  0.21228496     1.48600
O222        O  0.75629651  0.37425271  0.16218568    -0.86600
Mn223      Mn  0.78969362  0.33910076  0.27447840     1.49600
O224        O  0.75468270  0.30873702  0.35445287    -0.90500
C225        C  0.76208600  0.21839260  0.26518414     1.20500
C226        C  0.77481045  0.33486708  0.35492638     1.12600
Mn227      Mn  0.74126428  0.28028763  0.22430060     1.81000
O228        O  0.64688448  0.32289673  0.20837491    -0.95700
Mn229      Mn  0.75086831  0.26915660  0.31751147     1.49300
C230        C  0.83016876  0.27553165  0.29847412     1.09100
Mn231      Mn  0.68383374  0.33014178  0.17486046     1.49900
C232        C  0.68671786  0.41043371  0.19182742     1.12000
O233        O  0.78847317  0.34088531  0.22397387    -1.01500
O234        O  0.61115051  0.26910851  0.25159519    -0.91100
C235        C  0.80230766  0.32204483  0.20296256     1.23300
O236        O  0.68129726  0.27912114  0.17525345    -1.01900
O237        O  0.63577249  0.23139249  0.28820272    -0.89300
O238        O  0.67809165  0.38425792  0.17355734    -0.88900
O239        O  0.79112347  0.34566943  0.32837338    -0.88900
Mn240      Mn  0.69002570  0.23124278  0.28194905     1.47900
O241        O  0.64801118  0.34762525  0.25741738    -0.77400
C242        C  0.73635738  0.38788203  0.28846469     1.16400
O243        O  0.76553442  0.23163975  0.23555405    -0.76100
O244        O  0.67384300  0.31462482  0.31786873    -0.75700
Mn245      Mn  0.75152821  0.37397890  0.21626937     1.51100
O246        O  0.72338408  0.33290129  0.13791797    -0.88100
O247        O  0.69892203  0.26510848  0.32076715    -0.95600
O248        O  0.71120764  0.40988610  0.21376429    -0.90600
C249        C  0.67853386  0.28632124  0.33360531     1.14200
C250        C  0.64313111  0.19080793  0.98314840     0.04100
C251        C  0.66082645  0.19569209  0.01442261    -0.12100
C252        C  0.64805038  0.18116379  0.04535188     0.01600
C253        C  0.61768507  0.16071403  0.04451389    -0.10600
C254        C  0.60007074  0.15532582  0.01305815     0.04000
C255        C  0.61376519  0.16949983  0.98244134    -0.10000
H256        H  0.68242210  0.21371480  0.01531307     0.09600
H257        H  0.60679489  0.15091370  0.06854388     0.07200
H258        H  0.60008042  0.16630317  0.95808246     0.07000
C259        C  0.82019077  0.39400404  0.01191835     0.04100
C260        C  0.83931734  0.42504415  0.01224596    -0.12100
C261        C  0.85221328  0.43979980  0.98148828     0.01600
C262        C  0.84706236  0.42156054  0.94987481    -0.10600
C263        C  0.82888023  0.38925639  0.94939330     0.04000
C264        C  0.81571388  0.37600521  0.98069376    -0.10000
H265        H  0.84275809  0.43855339  0.03672905     0.09600
H266        H  0.85638482  0.43270259  0.92579521     0.07200
H267        H  0.79952887  0.35291698  0.98036744     0.07000
C268        C  0.93511199  0.19847651  0.67512036     0.04100
C269        C  0.96654863  0.20898606  0.69077881    -0.12100
C270        C  0.99886647  0.20174571  0.67528310     0.01600
C271        C  0.99978716  0.18316301  0.64348970    -0.10600
C272        C  0.96918460  0.17170388  0.62691934     0.04000
C273        C  0.93705395  0.17939962  0.64330009    -0.10000
H274        H  0.96594102  0.22474180  0.71412412     0.09600
H275        H  0.02456447  0.17835405  0.63124275     0.07200
H276        H  0.91339652  0.17066330  0.63106408     0.07000
C277        C  0.99769434  0.38899585  0.86119482     0.04100
C278        C  0.00035023  0.42061384  0.87896937    -0.12100
C279        C  0.97055134  0.43700518  0.89143067     0.01600
C280        C  0.93833153  0.42065276  0.88739275    -0.10600
C281        C  0.93568194  0.38949515  0.86838621     0.04000
C282        C  0.96577107  0.37292586  0.85707125    -0.10000
H283        H  0.02509267  0.43391509  0.87992706     0.09600
H284        H  0.91501601  0.43383314  0.89581905     0.07200
H285        H  0.96405524  0.35044041  0.84004225     0.07000
O286        O  0.79828632  0.37447534  0.78369806    -0.87300
C287        C  0.61172946  0.33154491  0.80339110     1.12800
O288        O  0.74596319  0.32769056  0.74891634    -1.35100
O289        O  0.68922821  0.29516969  0.85701970    -0.88700
O290        O  0.82377811  0.32981248  0.75687479    -0.89400
O291        O  0.78983712  0.25183153  0.76096926    -0.78200
O292        O  0.73996107  0.33914336  0.81873811    -1.00300
C293        C  0.69855404  0.21237291  0.79237615     1.22800
O294        O  0.71685877  0.26950946  0.72125259    -1.35200
Mn295      Mn  0.69471845  0.32155831  0.72691211     1.82100
O296        O  0.72787600  0.22656156  0.79674961    -0.77300
O297        O  0.64816876  0.26056789  0.83461508    -0.86700
C298        C  0.63011451  0.28110464  0.70942260     1.13900
C299        C  0.66757086  0.27038717  0.85945708     1.08600
O300        O  0.70726755  0.34491129  0.67701906    -0.78200
O301        O  0.68886884  0.29954041  0.77868045    -1.31900
O302        O  0.75535382  0.31924815  0.67893992    -0.97400
C303        C  0.74565654  0.18938964  0.69735566     1.07400
Mn304      Mn  0.64682934  0.26503797  0.78035008     1.48600
O305        O  0.75593105  0.21494781  0.67927035    -0.86600
Mn306      Mn  0.78862332  0.32668783  0.71572593     1.49600
O307        O  0.74602477  0.40573233  0.73862105    -0.90500
C308        C  0.76159905  0.32107197  0.83259275     1.20500
C309        C  0.76979156  0.40577302  0.71587548     1.12600
Mn310      Mn  0.73985840  0.27647387  0.77235417     1.81000
O311        O  0.64458126  0.26165099  0.72971236    -0.95700
Mn312      Mn  0.74533989  0.37172839  0.78072236     1.49300
C313        C  0.82383573  0.35459156  0.77882458     1.09100
Mn314      Mn  0.68129424  0.22796622  0.72126388     1.49900
C315        C  0.68598418  0.24673045  0.64179153     1.12000
O316        O  0.78930485  0.27592708  0.71221439    -1.01500
O317        O  0.61154015  0.30598494  0.78253738    -0.91100
C318        C  0.80371541  0.25548028  0.73137782     1.23300
O319        O  0.67923789  0.22696501  0.77212489    -1.01900
O320        O  0.63702861  0.33934147  0.82265159    -0.89300
O321        O  0.67539937  0.22865437  0.66735533    -0.88900
O322        O  0.78968962  0.38017443  0.71035752    -0.88900
Mn323      Mn  0.68988706  0.33487379  0.82018663     1.47900
O324        O  0.64469591  0.31015264  0.70410656    -0.77400
C325        C  0.73731739  0.34066104  0.66457106     1.16400
O326        O  0.76456857  0.29022256  0.82114017    -0.76100
O327        O  0.67044655  0.37215253  0.73811753    -0.75700
Mn328      Mn  0.75164440  0.26868361  0.67940263     1.51100
O329        O  0.72015199  0.19055199  0.71802605    -0.88100
O330        O  0.69537258  0.37189002  0.78625081    -0.95600
O331        O  0.71199758  0.26685402  0.64309073    -0.90600
C332        C  0.67429381  0.38605069  0.76772831     1.14200
C333        C  0.12419915  0.71655511  0.98271628     0.04100
C334        C  0.13071325  0.73430519  0.01362912    -0.12100
C335        C  0.12117415  0.71980278  0.04551850     0.01600
C336        C  0.10414188  0.68686834  0.04610433    -0.10600
C337        C  0.09511221  0.66992331  0.01465643     0.04000
C338        C  0.10527534  0.68544027  0.98324508    -0.10000
H339        H  0.14612242  0.75795252  0.01312691     0.09600
H340        H  0.09880825  0.67414429  0.07057537     0.07200
H341        H  0.10011650  0.67242445  0.95879590     0.07000
C342        C  0.29763089  0.90959413  0.01332550     0.04100
C343        C  0.28077695  0.90562470  0.98156525    -0.12100
C344        C  0.29513007  0.91995349  0.95133577     0.01600
C345        C  0.32617794  0.93913514  0.95341967    -0.10600
C346        C  0.34297535  0.94337035  0.98551617     0.04000
C347        C  0.32817466  0.92884394  0.01536799    -0.10000
H348        H  0.25819780  0.88892113  0.97993056     0.09600
H349        H  0.33801478  0.94904074  0.92988735     0.07200
H350        H  0.34136347  0.93070832  0.04014329     0.07000
C351        C  0.09772365  0.00428410  0.67488409     0.04100
C352        C  0.10718863  0.03552267  0.69129506    -0.12100
C353        C  0.10530446  0.06731010  0.67344265     0.01600
C354        C  0.09045911  0.06771463  0.64013836    -0.10600
C355        C  0.07773784  0.03731174  0.62453806     0.04000
C356        C  0.08194236  0.00532139  0.64185080    -0.10000
H357        H  0.11903620  0.03445919  0.71672969     0.09600
H358        H  0.09040906  0.09164875  0.62527658     0.07200
H359        H  0.07491483  0.98118528  0.62899855     0.07000
C360        C  0.30890526  0.04021737  0.85103104     0.04100
C361        C  0.29175939  0.07179071  0.84571553    -0.12100
C362        C  0.30432646  0.10294646  0.86003626     0.01600
C363        C  0.33610216  0.10209001  0.87889452    -0.10600
C364        C  0.35347549  0.06991752  0.88463775     0.04000
C365        C  0.33815807  0.03929949  0.87227139    -0.10000
H366        H  0.26988443  0.07257937  0.82815588     0.09600
H367        H  0.34740972  0.12612472  0.88832090     0.07200
H368        H  0.35046727  0.01437627  0.87705420     0.07000
O369        O  0.32931065  0.83789142  0.74007944    -0.87300
C370        C  0.19460757  0.75266711  0.85707283     1.12800
O371        O  0.25094028  0.83506937  0.74662392    -1.35100
O372        O  0.26308765  0.72255128  0.81705045    -0.88700
O373        O  0.30440293  0.87806009  0.70625509    -0.89400
O374        O  0.26626016  0.79444493  0.67577879    -0.78200
O375        O  0.29401240  0.78441127  0.78301228    -1.00300
C376        C  0.20276168  0.72081110  0.70516163     1.22800
O377        O  0.19248585  0.80611362  0.71859133    -1.35200
Mn378      Mn  0.20027900  0.82833414  0.76976028     1.82100
O379        O  0.23189326  0.73467818  0.70086637    -0.77300
O380        O  0.22586618  0.69734597  0.78055888    -0.86700
C381        C  0.13829185  0.78825880  0.79089944     1.13900
C382        C  0.25179226  0.69606395  0.80076586     1.08600
O383        O  0.17628458  0.87723535  0.75930841    -0.78200
O384        O  0.22238888  0.77681384  0.77629634    -1.31900
O385        O  0.19997518  0.87771557  0.71015323    -0.97400
C386        C  0.16618334  0.77694974  0.63874535     1.07400
Mn387      Mn  0.18745022  0.73509238  0.77733954     1.48600
O388        O  0.18808733  0.80161061  0.63966346    -0.86600
Mn389      Mn  0.25054256  0.87734188  0.71220373     1.49600
O390        O  0.29407770  0.88929312  0.78536546    -0.90500
C391        C  0.30697230  0.76356294  0.76318280     1.20500
C392        C  0.27620762  0.91534555  0.77580384     1.12600
Mn393      Mn  0.24340976  0.78356473  0.72464692     1.81000
O394        O  0.15137779  0.76907465  0.76966150    -0.95700
Mn395      Mn  0.29344390  0.83519582  0.78025245     1.49300
C396        C  0.33040731  0.86019878  0.71579309     1.09100
Mn397      Mn  0.15073175  0.77148872  0.71913875     1.49900
C398        C  0.11220295  0.83579185  0.69504617     1.12000
O399        O  0.24239142  0.84386318  0.67535911    -1.01500
O400        O  0.18307789  0.73554784  0.83133280    -0.91100
C401        C  0.26340853  0.82419833  0.66250841     1.23300
O402        O  0.18385533  0.73417316  0.72652458    -1.01900
O403        O  0.21991767  0.77366476  0.85533750    -0.89300
O404        O  0.11396127  0.81111067  0.71690946    -0.88900
O405        O  0.25385159  0.91410308  0.75173919    -0.88900
Mn406      Mn  0.25801827  0.77663592  0.81725588     1.47900
O407        O  0.15193579  0.81775475  0.79453008    -0.77400
C408        C  0.17905982  0.89075024  0.72973984     1.16400
O409        O  0.29217064  0.75939400  0.73444793    -0.76100
O410        O  0.21215981  0.85213847  0.81818762    -0.75700
Mn411      Mn  0.19176931  0.84096386  0.67670273     1.51100
O412        O  0.14953798  0.76634269  0.66519357    -0.88100
O413        O  0.26087650  0.82758104  0.81779189    -0.95600
O414        O  0.13789433  0.84623734  0.67722547    -0.90600
C415        C  0.24174689  0.84876590  0.83119763     1.14200
C416        C  0.93817347  0.72927941  0.12485830     0.04100
C417        C  0.97054041  0.74510790  0.12871867    -0.12100
C418        C  0.00002027  0.72446362  0.13164842     0.01600
C419        C  0.99897369  0.68945535  0.12109151    -0.10600
C420        C  0.96806059  0.67462279  0.11012458     0.04000
C421        C  0.93753163  0.69393404  0.11373786    -0.10000
H422        H  0.97298072  0.77260748  0.13365600     0.09600
H423        H  0.02168067  0.67308344  0.12318473     0.07200
H424        H  0.91365705  0.67988848  0.11042918     0.07000
C425        C  0.94162049  0.90615558  0.31973316     0.04100
C426        C  0.97426430  0.89955795  0.30455621    -0.12100
C427        C  0.00534118  0.90999971  0.32095451     0.01600
C428        C  0.00298439  0.92880960  0.35277466    -0.10600
C429        C  0.97069868  0.93641872  0.36870645     0.04000
C430        C  0.94027295  0.92480760  0.35165216    -0.10000
H431        H  0.97552984  0.88397089  0.28111224     0.09600
H432        H  0.02656623  0.93706561  0.36551262     0.07200
H433        H  0.91536533  0.92934505  0.36372443     0.07000
C434        C  0.82983646  0.04000176  0.32608648     0.04100
C435        C  0.84718153  0.03957790  0.35797579    -0.12100
C436        C  0.86068219  0.07011437  0.37257014     0.01600
C437        C  0.85601568  0.10192743  0.35495449    -0.10600
C438        C  0.83798772  0.10277908  0.32300297     0.04000
C439        C  0.82606432  0.07152399  0.30836442    -0.10000
H440        H  0.84878076  0.01533990  0.37232450     0.09600
H441        H  0.86497014  0.12601846  0.36662012     0.07200
H442        H  0.81163050  0.07207282  0.28426792     0.07000
C443        C  0.63691608  0.00179942  0.14197888     0.04100
C444        C  0.60429072  0.00167760  0.12472982    -0.12100
C445        C  0.58624419  0.03333777  0.11896100     0.01600
C446        C  0.60132698  0.06447520  0.13044620    -0.10600
C447        C  0.63229774  0.06458508  0.14903006     0.04000
C448        C  0.65040008  0.03355498  0.15392045    -0.10000
H449        H  0.59285540  0.97721230  0.11661565     0.09600
H450        H  0.58795964  0.08904605  0.12679270     0.07200
H451        H  0.67364375  0.03378648  0.16965310     0.07000
O452        O  0.64096539  0.76211109  0.18231666    -0.87300
C453        C  0.82865664  0.74573603  0.22028179     1.12800
O454        O  0.69517888  0.79968845  0.22572546    -1.35100
O455        O  0.75394869  0.69183809  0.26198380    -0.88700
O456        O  0.61624177  0.79321639  0.22425331    -0.89400
O457        O  0.65235087  0.79085372  0.30225434    -0.78200
O458        O  0.70099563  0.72774315  0.21775652    -1.00300
C459        C  0.74355519  0.76153600  0.34292134     1.22800
O460        O  0.72598766  0.82979000  0.28284533    -1.35200
Mn461      Mn  0.74692259  0.82183097  0.23070060     1.82100
O462        O  0.71457600  0.75689769  0.32818813    -0.77300
O463        O  0.79366001  0.71562440  0.29669556    -0.86700
C464        C  0.81341397  0.83947521  0.26858606     1.13900
C465        C  0.77406098  0.69043346  0.28800780     1.08600
O466        O  0.73480199  0.87133994  0.20548814    -0.78200
O467        O  0.75307791  0.77049077  0.25470347    -1.31900
O468        O  0.68650212  0.87231376  0.23209746    -0.97400
C469        C  0.69904527  0.85582109  0.36262365     1.07400
Mn470      Mn  0.79568373  0.76965146  0.28873793     1.48600
O471        O  0.68629470  0.87141521  0.33679880    -0.86600
Mn472      Mn  0.65243088  0.83340692  0.22548931     1.49600
O473        O  0.69322303  0.80578550  0.14715776    -0.90500
C474        C  0.68070059  0.71378341  0.23819424     1.20500
C475        C  0.67049821  0.82951936  0.14643766     1.12600
Mn476      Mn  0.70218758  0.77834908  0.27782261     1.81000
O477        O  0.79864430  0.82036030  0.28902223    -0.95700
Mn478      Mn  0.69431459  0.76562745  0.18304040     1.49300
C479        C  0.61528702  0.76936549  0.20141154     1.09100
Mn480      Mn  0.76332405  0.83135857  0.32318474     1.49900
C481        C  0.75775340  0.91110001  0.30265236     1.12000
O482        O  0.65307662  0.83858827  0.27618095    -1.01500
O483        O  0.82966638  0.76587224  0.24645000    -0.91100
C484        C  0.63833640  0.82025664  0.29717299     1.23300
O485        O  0.76447811  0.78018387  0.32789550    -1.01900
O486        O  0.80507431  0.72350003  0.21637337    -0.89300
O487        O  0.77045851  0.88514544  0.31871598    -0.88900
O488        O  0.65100142  0.83699128  0.17181459    -0.88900
Mn489      Mn  0.75254083  0.72717819  0.22104661     1.47900
O490        O  0.79786394  0.84454545  0.24008547    -0.77400
C491        C  0.70522630  0.88504088  0.20949527     1.16400
O492        O  0.67723712  0.72823489  0.26759202    -0.76100
O493        O  0.76900863  0.80884945  0.18025521    -0.75700
Mn494      Mn  0.69089159  0.87181812  0.28396891     1.51100
O495        O  0.72642034  0.83769977  0.36191804    -0.88100
O496        O  0.74487944  0.75972419  0.18171005    -0.95600
O497        O  0.72943387  0.90957673  0.28609090    -0.90600
C498        C  0.76437904  0.77931779  0.16624492     1.14200
C499        C  0.63631341  0.92320250  0.03827770     0.04100
C500        C  0.65531371  0.91774047  0.00794735    -0.12100
C501        C  0.63864298  0.91853554  0.97586290     0.01600
C502        C  0.60446676  0.93106184  0.97410778    -0.10600
C503        C  0.58694684  0.94158843  0.00402502     0.04000
C504        C  0.60311010  0.93781057  0.03630956    -0.10000
H505        H  0.68130334  0.90744354  0.00973654     0.09600
H506        H  0.59034045  0.93023369  0.94987729     0.07200
H507        H  0.58860133  0.94230413  0.05998125     0.07000
C508        C  0.82214335  0.73302109  0.96815696     0.04100
C509        C  0.84107799  0.70133055  0.96698838    -0.12100
C510        C  0.85046556  0.68336452  0.99777620     0.01600
C511        C  0.83953729  0.69780943  0.02999359    -0.10600
C512        C  0.82127146  0.72999752  0.03192076     0.04000
C513        C  0.81324880  0.74734700  0.00069551    -0.10000
H514        H  0.84746782  0.69013312  0.94196215     0.09600
H515        H  0.84479933  0.68361896  0.05364922     0.07200
H516        H  0.79788878  0.77096581  0.00161410     0.07000
C517        C  0.83824324  0.07868210  0.66755777     0.04100
C518        C  0.85732731  0.08130718  0.63674930    -0.12100
C519        C  0.86820187  0.05115363  0.61945582     0.01600
C520        C  0.86276577  0.01852792  0.63489792    -0.10600
C521        C  0.84365934  0.01595031  0.66577203     0.04000
C522        C  0.83319737  0.04624261  0.68295521    -0.10000
H523        H  0.85962432  0.10649254  0.62414651     0.09600
H524        H  0.86944891  0.99497180  0.62088213     0.07200
H525        H  0.81572580  0.04427965  0.70493264     0.07000
C526        C  0.64486196  0.08157506  0.85265488     0.04100
C527        C  0.61317219  0.08090452  0.87118105    -0.12100
C528        C  0.59629243  0.04923690  0.87973663     0.01600
C529        C  0.61201648  0.01758137  0.86872173    -0.10600
C530        C  0.64431383  0.01735757  0.85085019     0.04000
C531        C  0.66046440  0.04958051  0.84349443    -0.10000
H532        H  0.60125229  0.10544693  0.87833869     0.09600
H533        H  0.59904828  0.99308845  0.87380442     0.07200
H534        H  0.68421979  0.04979417  0.82855160     0.07000
C535        C  0.98407971  0.90395559  0.66056801     0.04100
C536        C  0.95265445  0.89794391  0.67761257    -0.12100
C537        C  0.92141157  0.91060991  0.66392131     0.01600
C538        C  0.92208785  0.92898786  0.63180748    -0.10600
C539        C  0.95384039  0.93560361  0.61463068     0.04000
C540        C  0.98447841  0.92449644  0.63047932    -0.10000
H541        H  0.95212063  0.88105140  0.70015696     0.09600
H542        H  0.89807732  0.93721860  0.61993689     0.07200
H543        H  0.00906298  0.92994387  0.61810036     0.07000
C544        C  0.95817444  0.72835272  0.85605666     0.04100
C545        C  0.95800803  0.69659058  0.87401561    -0.12100
C546        C  0.98835139  0.68228122  0.88775378     0.01600
C547        C  0.01981063  0.69996821  0.88257019    -0.10600
C548        C  0.02050162  0.73179736  0.86402070     0.04000
C549        C  0.98944383  0.74626125  0.85189314    -0.10000
H550        H  0.93409558  0.68200267  0.87587581     0.09600
H551        H  0.04377760  0.68842240  0.89150149     0.07200
H552        H  0.99000450  0.77027850  0.83708394     0.07000
N553        N  0.95037569  0.98120704  0.44903388    -0.05200
N554        N  0.93965073  0.96675977  0.41946523    -0.57300
N555        N  0.97832670  0.97427283  0.53406248    -0.04900
N556        N  0.98705351  0.95907105  0.56356145    -0.59400
N557        N  0.94451923  0.97658944  0.53172688    -0.04500
N558        N  0.92961232  0.96300793  0.55971007    -0.57300
N559        N  0.98417158  0.97854206  0.45162611    -0.04100
N560        N  0.99699329  0.96246481  0.42384968    -0.59800
C561        C  0.96903819  0.95500414  0.40370806     0.97000
C562        C  0.95648670  0.95201257  0.57943593     0.96800
N563        N  0.04113361  0.06202956  0.54397263    -0.05400
N564        N  0.05568484  0.07077734  0.57365460    -0.57900
N565        N  0.04202227  0.03405586  0.46043114    -0.03500
N566        N  0.05094710  0.02381048  0.42901552    -0.59100
N567        N  0.04457952  0.06826000  0.46308593    -0.05400
N568        N  0.05530969  0.08165919  0.43336657    -0.58200
N569        N  0.03874125  0.02782884  0.54142324    -0.03100
N570        N  0.05161373  0.01278772  0.56957048    -0.59200
Mn571      Mn  0.01201913  0.00256790  0.49701321     1.18400
C572        C  0.06220983  0.03995322  0.58940810     0.99100
C573        C  0.05906799  0.05366948  0.41241984     0.99700
N574        N  0.89546267  0.03927781  0.53276991    -0.05400
N575        N  0.88398275  0.02565183  0.56204442    -0.61700
N576        N  0.90147047  0.07980472  0.45474603    -0.04200
N577        N  0.88822832  0.09484345  0.42676539    -0.62400
N578        N  0.89927300  0.04560835  0.45212788    -0.04900
N579        N  0.88450094  0.03682865  0.42260239    -0.62000
N580        N  0.89795394  0.07344882  0.53574571    -0.03800
N581        N  0.88817760  0.08349209  0.56701638    -0.62700
Mn582      Mn  0.92107541  0.00982112  0.49094149     1.10700
C583        C  0.87961374  0.05344619  0.58309959     1.00300
C584        C  0.87767241  0.06762844  0.40697124     1.00400
N585        N  0.99538411  0.13096240  0.46434075    -0.04900
N586        N  0.01007845  0.14449684  0.43623680    -0.60300
N587        N  0.95584826  0.12896569  0.54443321    -0.04300
N588        N  0.94293083  0.14517036  0.57207595    -0.57000
N589        N  0.98966350  0.12642029  0.54699872    -0.05600
N590        N  0.00030365  0.14110281  0.57646560    -0.59900
N591        N  0.96156526  0.13335875  0.46223673    -0.04600
N592        N  0.95261448  0.14858881  0.43282002    -0.57100
Mn593      Mn  0.01910765  0.09780742  0.50507343     1.20200
Mn594      Mn  0.92803732  0.10499395  0.49922192     1.10100
Cl595      Cl  0.97009066  0.05380481  0.49809822    -0.85000
C596        C  0.98305494  0.15556569  0.41673594     0.97300
C597        C  0.97083850  0.15283204  0.59213807     0.97100
N598        N  0.94445541  0.51234291  0.06697411    -0.05200
N599        N  0.92932668  0.48445805  0.08046564    -0.57300
N600        N  0.98372910  0.59072924  0.07512141    -0.04900
N601        N  0.99588837  0.61894055  0.09062272    -0.59400
N602        N  0.94983525  0.59302275  0.07199062    -0.04500
N603        N  0.93849721  0.62260652  0.08522436    -0.57300
N604        N  0.97832967  0.50990136  0.06990106    -0.04100
N605        N  0.98677214  0.48051380  0.08543277    -0.59800
C606        C  0.95609599  0.46484102  0.09191427     0.97000
C607        C  0.96735884  0.63842453  0.09701130     0.96800
N608        N  0.05079565  0.59192941  0.99140465    -0.05400
N609        N  0.06846291  0.61994029  0.98239332    -0.57900
N610        N  0.04311368  0.50715389  0.01905258    -0.03500
N611        N  0.05768806  0.47753244  0.02975899    -0.59100
N612        N  0.04592665  0.50978862  0.98509634    -0.05400
N613        N  0.06221967  0.48210256  0.97221549    -0.58200
N614        N  0.04787137  0.59019786  0.02536099    -0.03100
N615        N  0.06356216  0.61728838  0.04011497    -0.59200
Mn616      Mn  0.01413670  0.54925031  0.04868109     1.18400
C617        C  0.07655132  0.63563791  0.01287053     0.99100
C618        C  0.06966972  0.46185463  0.00023166     0.99700
N619        N  0.89579795  0.60224163  0.01203169    -0.05400
N620        N  0.87825304  0.62924990  0.02462891    -0.61700
N621        N  0.89521106  0.52201969  0.97178755    -0.04200
N622        N  0.88132973  0.49408207  0.95680259    -0.62400
N623        N  0.89229311  0.51989364  0.00570121    -0.04900
N624        N  0.87633841  0.49074728  0.01445360    -0.62000
N625        N  0.89893215  0.60499878  0.97813793    -0.03800
N626        N  0.88342190  0.63396171  0.96712230    -0.62700
Mn627      Mn  0.91963587  0.55686651  0.04012625     1.10700
C628        C  0.87043887  0.64911625  0.99642703     1.00300
C629        C  0.86942797  0.47475146  0.98382671     1.00400
N630        N  0.99189548  0.51941368  0.92567602    -0.04900
N631        N  0.00220482  0.48870794  0.91421786    -0.60300
N632        N  0.96403976  0.60290648  0.92772383    -0.04300
N633        N  0.95541607  0.63226980  0.91231594    -0.57000
N634        N  0.99794968  0.60046095  0.93034003    -0.05600
N635        N  0.01291137  0.62843364  0.91671868    -0.59900
N636        N  0.95806281  0.52234457  0.92280916    -0.04600
N637        N  0.94485148  0.49362018  0.90945894    -0.57100
Mn638      Mn  0.02264840  0.55548530  0.95708327     1.20200
Mn639      Mn  0.92830554  0.56352507  0.94885841     1.10100
Cl640      Cl  0.97125509  0.55645797  0.99875135    -0.85000
C641        C  0.97260043  0.47297038  0.90425860     0.97300
C642        C  0.98595528  0.64803117  0.90552210     0.97100
N643        N  0.43871939  0.12764768  0.98627443    -0.05200
N644        N  0.41019252  0.14109453  0.97310027    -0.57300
N645        N  0.51679955  0.11789715  0.02526213    -0.04900
N646        N  0.54587753  0.12953887  0.03934860    -0.59400
N647        N  0.51868505  0.11986222  0.99115131    -0.04500
N648        N  0.54871877  0.13275915  0.98147544    -0.57300
N649        N  0.43616542  0.12537347  0.02031084    -0.04100
N650        N  0.40589137  0.13719501  0.03076477    -0.59800
C651        C  0.39001482  0.14689573  0.00109846     0.97000
C652        C  0.56553748  0.13868373  0.01160865     0.96800
N653        N  0.50387137  0.02434557  0.07759189    -0.05400
N654        N  0.53133525  0.00890014  0.09152780    -0.57900
N655        N  0.42533309  0.06715338  0.07557104    -0.03500
N656        N  0.39794199  0.08098883  0.09133279    -0.59100
N657        N  0.42185284  0.03310709  0.07323289    -0.05400
N658        N  0.39209198  0.02323017  0.08751428    -0.58200
N659        N  0.50685039  0.05840336  0.07967352    -0.03100
N660        N  0.53610629  0.06680334  0.09510922    -0.59200
Mn661      Mn  0.47141823  0.09341857  0.05133016     1.18400
C662        C  0.55127210  0.03584075  0.10256671     0.99100
C663        C  0.37713578  0.05335175  0.09885605     0.99700
N664        N  0.51833971  0.06882688  0.92745632    -0.05400
N665        N  0.54706129  0.07955799  0.91183459    -0.61700
N666        N  0.43348003  0.04320581  0.92236135    -0.04200
N667        N  0.40359741  0.03523438  0.90778208    -0.62400
N668        N  0.43662184  0.07724966  0.92468274    -0.04900
N669        N  0.40891956  0.09305355  0.91173262    -0.62000
N670        N  0.51550744  0.03474622  0.92502650    -0.03800
N671        N  0.54239553  0.02171069  0.90769297    -0.62700
Mn672      Mn  0.47847627  0.09962677  0.95661883     1.10700
C673        C  0.56212833  0.04999472  0.89941035     1.00300
C674        C  0.38840673  0.06647651  0.90112201     1.00400
N675        N  0.42274223  0.98076387  0.00991295    -0.04900
N676        N  0.39299514  0.96665501  0.01888250    -0.60300
N677        N  0.50544785  0.97603258  0.98155176    -0.04300
N678        N  0.53565831  0.96356746  0.97156676    -0.57000
N679        N  0.50235955  0.97371930  0.01559963    -0.05600
N680        N  0.53042188  0.95975931  0.02919639    -0.59900
N681        N  0.42529438  0.98275536  0.97584843    -0.04600
N682        N  0.39708599  0.97008359  0.96106683    -0.57100
Mn683      Mn  0.46226785  0.00171318  0.04497847     1.20200
Mn684      Mn  0.46997995  0.00795323  0.95002502     1.10100
Cl685      Cl  0.47061573  0.05058091  0.00074736    -0.85000
C686        C  0.37720353  0.96016497  0.98826374     0.97300
C687        C  0.55084807  0.95341914  0.00151342     0.97100
O688        O  0.75629236  0.69115683  0.75287131    -0.87300
C689        C  0.66471610  0.83232470  0.85758481     1.12800
O690        O  0.74903725  0.76997783  0.75195876    -1.35100
O691        O  0.63588571  0.75721527  0.81878170    -0.88700
O692        O  0.79082021  0.71554241  0.71294259    -0.89400
O693        O  0.70913216  0.74960239  0.67938189    -0.78200
O694        O  0.70018525  0.72642291  0.79049523    -1.00300
C695        C  0.63641956  0.81780810  0.70689905     1.22800
O696        O  0.71998406  0.82670167  0.72111188    -1.35200
Mn697      Mn  0.74210364  0.82229989  0.77276309     1.82100
O698        O  0.64824580  0.78712002  0.70387098    -0.77300
O699        O  0.61229755  0.79463753  0.78116432    -0.86700
C700        C  0.70115457  0.88732010  0.79054057     1.13900
C701        C  0.61069219  0.76763894  0.80028615     1.08600
O702        O  0.79120563  0.84613493  0.75939976    -0.78200
O703        O  0.69085019  0.79929945  0.77975454    -1.31900
O704        O  0.79039671  0.81968764  0.71128184    -0.97400
C705        C  0.68922093  0.84986220  0.64160731     1.07400
Mn706      Mn  0.64916279  0.83431310  0.77839854     1.48600
O707        O  0.71210726  0.82612699  0.64237673    -0.86600
Mn708      Mn  0.79053802  0.76898787  0.71632552     1.49600
O709        O  0.80407566  0.73423521  0.79617647    -0.90500
C710        C  0.68141879  0.71052625  0.77056500     1.20500
C711        C  0.82981754  0.75042430  0.78336208     1.12600
Mn712      Mn  0.69768119  0.77525765  0.72883215     1.81000
O713        O  0.68241122  0.87174135  0.77062976    -0.95700
Mn714      Mn  0.75062606  0.73013645  0.78971002     1.49300
C715        C  0.77475967  0.68989558  0.72576727     1.09100
Mn716      Mn  0.68696817  0.86960784  0.72043272     1.49900
C717        C  0.75100667  0.90475193  0.69461976     1.12000
O718        O  0.75718034  0.77468564  0.67891966    -1.01500
O719        O  0.64740926  0.84122472  0.83123163    -0.91100
C720        C  0.73839704  0.75337649  0.66517655     1.23300
O721        O  0.65061264  0.83601536  0.72811644    -1.01900
O722        O  0.68364460  0.80526079  0.85818184    -0.89300
O723        O  0.72771162  0.90493715  0.71783251    -0.88900
O724        O  0.82815229  0.76763022  0.75516529    -0.88900
Mn725      Mn  0.68926058  0.76477477  0.82220769     1.47900
O726        O  0.73046963  0.87346903  0.79528921    -0.77400
C727        C  0.80384177  0.84184863  0.72931729     1.16400
O728        O  0.67565038  0.72489945  0.74153608    -0.76100
O729        O  0.76482039  0.81313337  0.82342863    -0.75700
Mn730      Mn  0.75298073  0.82527271  0.67798974     1.51100
O731        O  0.68276135  0.86964045  0.66705752    -0.88100
O732        O  0.73973457  0.76442016  0.82550869    -0.95600
O733        O  0.75705226  0.87895416  0.67503928    -0.90600
C734        C  0.75888265  0.78515782  0.83976316     1.14200
C735        C  0.34257186  0.87829558  0.54811212     0.04100
C736        C  0.33047660  0.86324154  0.51721382    -0.12100
C737        C  0.33279917  0.88144989  0.48584610     0.01600
C738        C  0.34957933  0.91382492  0.48532807    -0.10600
C739        C  0.36410836  0.92817307  0.51533390     0.04000
C740        C  0.36041912  0.91038556  0.54697630    -0.10000
H741        H  0.31658700  0.83872150  0.51817349     0.09600
H742        H  0.34981482  0.92890705  0.46157106     0.07200
H743        H  0.36949351  0.92225227  0.57084176     0.07000
C744        C  0.12856517  0.70599927  0.51256992     0.04100
C745        C  0.09912209  0.68468871  0.51320749    -0.12100
C746        C  0.08424930  0.67193209  0.48252233     0.01600
C747        C  0.10164234  0.67782429  0.45073409    -0.10600
C748        C  0.13317066  0.69677856  0.45017940     0.04000
C749        C  0.14566179  0.71140936  0.48105203    -0.10000
H750        H  0.08677669  0.67936848  0.53789415     0.09600
H751        H  0.09063283  0.66830441  0.42667656     0.07200
H752        H  0.16763875  0.72891805  0.47998999     0.07000
C753        C  0.80778717  0.40462298  0.48352386     0.04100
C754        C  0.79041416  0.39748333  0.51464892    -0.12100
C755        C  0.80384251  0.40875230  0.54667986     0.01600
C756        C  0.83604931  0.42676604  0.54718585    -0.10600
C757        C  0.85364740  0.43436256  0.51585361     0.04000
C758        C  0.83794757  0.42488634  0.48441836    -0.10000
H759        H  0.76779671  0.38079776  0.51427581     0.09600
H760        H  0.84765252  0.43394926  0.57175476     0.07200
H761        H  0.85052397  0.43131927  0.46010075     0.07000
C762        C  0.60949793  0.22764050  0.51534158     0.04100
C763        C  0.61887150  0.24422195  0.48447744    -0.12100
C764        C  0.60727925  0.23127665  0.45253639     0.01600
C765        C  0.58751567  0.20033624  0.45144462    -0.10600
C766        C  0.57680477  0.18449987  0.48256935     0.04000
C767        C  0.58583676  0.20012574  0.51417163    -0.10000
H768        H  0.63783346  0.26505567  0.48488091     0.09600
H769        H  0.58228998  0.18777286  0.42685519     0.07200
H770        H  0.57764875  0.18840916  0.53842928     0.07000
C771        C  0.60291920  0.88637481  0.46800580     0.04100
C772        C  0.60737237  0.86938476  0.49956859    -0.12100
C773        C  0.59870574  0.88614741  0.53050426     0.01600
C774        C  0.58112546  0.91828978  0.52929580    -0.10600
C775        C  0.57561442  0.93504064  0.49733866     0.04000
C776        C  0.58548891  0.91826666  0.46663736    -0.10000
H777        H  0.62365644  0.84635541  0.50032747     0.09600
H778        H  0.57532825  0.93186051  0.55329024     0.07200
H779        H  0.58372810  0.93186024  0.44200233     0.07000
C780        C  0.79288000  0.69090148  0.53558623     0.04100
C781        C  0.82491531  0.67266080  0.53357215    -0.12100
C782        C  0.84137979  0.66572468  0.50127416     0.01600
C783        C  0.82489168  0.67761213  0.47063272    -0.10600
C784        C  0.79289598  0.69562775  0.47176085     0.04000
C785        C  0.77701060  0.70149862  0.50426240    -0.10000
H786        H  0.83739611  0.66447212  0.55737790     0.09600
H787        H  0.83745506  0.67382365  0.44576231     0.07200
H788        H  0.75338409  0.71665321  0.50528128     0.07000
C789        C  0.44392978  0.41402422  0.83575808     0.04100
C790        C  0.44450456  0.42762456  0.86969055    -0.12100
C791        C  0.47369720  0.44480665  0.88230091     0.01600
C792        C  0.50348848  0.44632667  0.86167465    -0.10600
C793        C  0.50441327  0.42832877  0.82998040     0.04000
C794        C  0.47359056  0.41659761  0.81522643    -0.10000
H795        H  0.42280899  0.42353559  0.88700456     0.09600
H796        H  0.52745270  0.45603662  0.87262268     0.07200
H797        H  0.47417460  0.40459772  0.78978609     0.07000
C798        C  0.49932558  0.22944683  0.64978890     0.04100
C799        C  0.50019657  0.19890498  0.62911932    -0.12100
C800        C  0.46971499  0.18204540  0.61804878     0.01600
C801        C  0.43745241  0.19715674  0.62743911    -0.10600
C802        C  0.43543842  0.22834610  0.64748751     0.04000
C803        C  0.46679404  0.24414887  0.65825818    -0.10000
H804        H  0.52499602  0.18770662  0.62226094     0.09600
H805        H  0.41376003  0.18456450  0.61921792     0.07200
H806        H  0.46583043  0.26694485  0.67486218     0.07000
C807        C  0.44322817  0.87673793  0.35145830     0.04100
C808        C  0.44259491  0.90855316  0.37029471    -0.12100
C809        C  0.47329815  0.92546908  0.38113295     0.01600
C810        C  0.50539117  0.90932811  0.37282894    -0.10600
C811        C  0.50710967  0.87709379  0.35438477     0.04000
C812        C  0.47561321  0.86103326  0.34440609    -0.10000
H813        H  0.41787461  0.92074567  0.37558637     0.09600
H814        H  0.52922165  0.92203720  0.38045276     0.07200
H815        H  0.47636887  0.83735892  0.32905226     0.07000
C816        C  0.49467401  0.69098810  0.16403395     0.04100
C817        C  0.49495697  0.67949055  0.12926491    -0.12100
C818        C  0.46440636  0.66816020  0.11341946     0.01600
C819        C  0.43322064  0.67093294  0.13164168    -0.10600
C820        C  0.43314485  0.68432639  0.16537417     0.04000
C821        C  0.46408938  0.68953278  0.18294003    -0.10000
H822        H  0.51835622  0.68110752  0.11392918     0.09600
H823        H  0.40878783  0.66699771  0.11837577     0.07200
H824        H  0.46349173  0.69924534  0.20919187     0.07000
C825        C  0.79371553  0.50052524  0.37042813     0.04100
C826        C  0.77764454  0.53214063  0.36182475    -0.12100
C827        C  0.79537917  0.56380104  0.36536522     0.01600
C828        C  0.82810737  0.56375679  0.38103196    -0.10600
C829        C  0.84375934  0.53285979  0.39241583     0.04000
C830        C  0.82662687  0.50095102  0.38650769    -0.10000
H831        H  0.75260932  0.53167242  0.34923988     0.09600
H832        H  0.84254829  0.58788912  0.38253325     0.07200
H833        H  0.83939228  0.47657782  0.39269209     0.07000
C834        C  0.61137385  0.59965722  0.16808571     0.04100
C835        C  0.61931921  0.56682876  0.18167418    -0.12100
C836        C  0.61128296  0.53652694  0.16330082     0.01600
C837        C  0.59153478  0.53906893  0.13295801    -0.10600
C838        C  0.58521896  0.57137995  0.11697352     0.04000
C839        C  0.59612317  0.60195660  0.13445909    -0.10000
H840        H  0.63505321  0.56523769  0.20489871     0.09600
H841        H  0.58373802  0.51514492  0.12018251     0.07200
H842        H  0.59405808  0.62683848  0.12145605     0.07000
C843        C  0.48511935  0.68966552  0.82002595     0.04100
C844        C  0.45391005  0.69343855  0.80211605    -0.12100
C845        C  0.42252990  0.68551050  0.81837997     0.01600
C846        C  0.42268429  0.67025041  0.85185545    -0.10600
C847        C  0.45419663  0.66297274  0.86872016     0.04000
C848        C  0.48503115  0.67353598  0.85274963    -0.10000
H849        H  0.45365065  0.70621437  0.77701125     0.09600
H850        H  0.39859628  0.66605259  0.86550009     0.07200
H851        H  0.50903256  0.67131046  0.86702117     0.07000
C852        C  0.45892688  0.89412106  0.64828648     0.04100
C853        C  0.45917934  0.92409260  0.62768950    -0.12100
C854        C  0.49007594  0.93896376  0.61593586     0.01600
C855        C  0.52139561  0.92080776  0.62191817    -0.10600
C856        C  0.52125786  0.88859137  0.64031550     0.04000
C857        C  0.48987496  0.87609787  0.65388674    -0.10000
H858        H  0.43482412  0.93696314  0.62235673     0.09600
H859        H  0.54560144  0.93180822  0.61294733     0.07200
H860        H  0.48996528  0.85348855  0.67075182     0.07000
C861        C  0.80477794  0.58044165  0.63314116     0.04100
C862        C  0.78771811  0.54872823  0.63681888    -0.12100
C863        C  0.80378270  0.51795271  0.62618131     0.01600
C864        C  0.83512851  0.51950008  0.60796409    -0.10600
C865        C  0.85218641  0.55143976  0.60415340     0.04000
C866        C  0.83627673  0.58208216  0.61553360    -0.10000
H867        H  0.76512595  0.54744650  0.65350618     0.09600
H868        H  0.84811917  0.49548176  0.60086808     0.07200
H869        H  0.85011338  0.60668139  0.61455147     0.07000
C870        C  0.61986396  0.58093424  0.82403500     0.04100
C871        C  0.62632124  0.54808958  0.80883349    -0.12100
C872        C  0.61570763  0.51682136  0.82506556     0.01600
C873        C  0.59722380  0.51929149  0.85706652    -0.10600
C874        C  0.58946327  0.55210317  0.87265821     0.04000
C875        C  0.60125784  0.58257294  0.85567457    -0.10000
H876        H  0.64157931  0.54681919  0.78525275     0.09600
H877        H  0.58898858  0.49556229  0.86988211     0.07200
H878        H  0.59660793  0.60781960  0.86743367     0.07000
C879        C  0.32451331  0.50387511  0.83441813     0.04100
C880        C  0.33903111  0.50386940  0.86830048    -0.12100
C881        C  0.34487551  0.53571933  0.88584876     0.01600
C882        C  0.33248912  0.56648733  0.87065614    -0.10600
C883        C  0.31752764  0.56656493  0.83746844     0.04000
C884        C  0.31534715  0.53543978  0.81893608    -0.10000
H885        H  0.34477434  0.47957650  0.88127341     0.09600
H886        H  0.33371234  0.59060656  0.88523269     0.07200
H887        H  0.30391772  0.53531083  0.79322788     0.07000
C888        C  0.14715405  0.60309580  0.62945346     0.04100
C889        C  0.11415406  0.60174821  0.61377725    -0.12100
C890        C  0.09772731  0.56942295  0.60829448     0.01600
C891        C  0.11407456  0.53906026  0.61990090    -0.10600
C892        C  0.14711822  0.53978421  0.63501344     0.04000
C893        C  0.16405153  0.57197496  0.63840917    -0.10000
H894        H  0.10082206  0.62576950  0.60746025     0.09600
H895        H  0.09999624  0.51469688  0.61872006     0.07200
H896        H  0.18923647  0.57328444  0.65060927     0.07000
N897        N  0.01655213  0.47533473  0.48641734    -0.05200
N898        N  0.04397369  0.45902190  0.47346930    -0.57300
N899        N  0.93694072  0.47406824  0.52671438    -0.04900
N900        N  0.90856008  0.46108748  0.54139279    -0.59400
N901        N  0.93497397  0.47128217  0.49274413    -0.04500
N902        N  0.90554051  0.45644573  0.48372659    -0.57300
N903        N  0.01933412  0.47817940  0.52033137    -0.04100
N904        N  0.04871712  0.46366829  0.53102609    -0.59800
C905        C  0.06408121  0.45167792  0.50147623     0.97000
C906        C  0.88913583  0.45002130  0.51414722     0.96800
N907        N  0.93528371  0.57136319  0.57364336    -0.05400
N908        N  0.90473395  0.58215292  0.58413545    -0.57900
N909        N  0.01781863  0.54336620  0.57119839    -0.03500
N910        N  0.04739829  0.53507760  0.58606656    -0.59100
N911        N  0.01512201  0.57753350  0.56841106    -0.05400
N912        N  0.04294304  0.59299070  0.58135073    -0.58200
N913        N  0.93765244  0.53718946  0.57630095    -0.03100
N914        N  0.90851131  0.52420479  0.58854890    -0.59200
Mn915      Mn  0.97836471  0.50722556  0.55002675     1.18400
C916        C  0.88836558  0.55255715  0.59323119     0.99100
C917        C  0.06285684  0.56615913  0.59238630     0.99700
N918        N  0.92680236  0.52350282  0.43155089    -0.05400
N919        N  0.89872572  0.50828378  0.41874591    -0.61700
N920        N  0.00448031  0.56441580  0.42462505    -0.04200
N921        N  0.03364842  0.57818598  0.41324948    -0.62400
N922        N  0.00766500  0.53030269  0.42757355    -0.04900
N923        N  0.03901230  0.52046958  0.41827101    -0.62000
N924        N  0.92412143  0.55765730  0.42912234    -0.03800
N925        N  0.89447930  0.56622638  0.41464727    -0.62700
Mn926      Mn  0.97148690  0.49897426  0.45841350     1.10700
C927        C  0.87879619  0.53536014  0.40816881     1.00300
C928        C  0.05490584  0.55055860  0.40948204     1.00400
N929        N  0.00602242  0.63022746  0.50741123    -0.04900
N930        N  0.03476031  0.64662858  0.51595748    -0.60300
N931        N  0.92156618  0.62202118  0.48051765    -0.04300
N932        N  0.89182421  0.63587330  0.46999187    -0.57000
N933        N  0.92452684  0.62505960  0.51441207    -0.05600
N934        N  0.89678769  0.64079140  0.52750248    -0.59900
N935        N  0.00352835  0.62753120  0.47351690    -0.04600
N936        N  0.03078537  0.64206030  0.45829778    -0.57100
Mn937      Mn  0.97037433  0.60210493  0.54201325     1.20200
Mn938      Mn  0.96295682  0.59372700  0.45058816     1.10100
Cl939      Cl  0.97083420  0.55046407  0.50028860    -0.85000
C940        C  0.05008567  0.65401348  0.48518590     0.97300
C941        C  0.87635072  0.64764119  0.49958257     0.97100
N942        N  0.49559562  0.48835998  0.04424531    -0.05200
N943        N  0.51032711  0.47541564  0.07248918    -0.57300
N944        N  0.45735640  0.47852196  0.96593207    -0.04900
N945        N  0.44540184  0.46359519  0.93746966    -0.59400
N946        N  0.49123768  0.48174453  0.96397168    -0.04500
N947        N  0.50282653  0.46927828  0.93429543    -0.57300
N948        N  0.46171498  0.48553928  0.04629692    -0.04100
N949        N  0.45281766  0.47067023  0.07579194    -0.59800
C950        C  0.48324753  0.46443159  0.09193063     0.97000
C951        C  0.47407074  0.45793281  0.91812156     0.96800
N952        N  0.39019745  0.56175917  0.96179056    -0.05400
N953        N  0.37186156  0.56982035  0.93408972    -0.57900
N954        N  0.39718557  0.53621529  0.04648115    -0.03500
N955        N  0.38237231  0.52556419  0.07580593    -0.59100
N956        N  0.39411472  0.57025868  0.04333431    -0.05400
N957        N  0.37730656  0.58327935  0.07061855    -0.58200
N958        N  0.39320434  0.52775441  0.96458846    -0.03100
N959        N  0.37700706  0.51196576  0.93851666    -0.59200
Mn960      Mn  0.42659431  0.50572945  0.00608539     1.18400
C961        C  0.36348313  0.53866117  0.91974774     0.99100
C962        C  0.36990247  0.55513981  0.09093603     0.99700
N963        N  0.54508455  0.54099673  0.95430324    -0.05400
N964        N  0.56202609  0.52720455  0.92758852    -0.61700
N965        N  0.54483043  0.58342022  0.03371062    -0.04200
N966        N  0.55829280  0.59813574  0.06203472    -0.62400
N967        N  0.54765189  0.54932886  0.03566563    -0.04900
N968        N  0.56295777  0.54021359  0.06478302    -0.62000
N969        N  0.54241606  0.57499024  0.95070404    -0.03800
N970        N  0.55773896  0.58487790  0.92133066    -0.62700
Mn971      Mn  0.52079264  0.51422466  0.99959328     1.10700
C972        C  0.57001749  0.55475722  0.90693096     1.00300
C973        C  0.56974352  0.57061209  0.08122090     1.00400
N974        N  0.44758956  0.63073268  0.03200283    -0.04900
N975        N  0.43580507  0.64414579  0.06115234    -0.60300
N976        N  0.47739169  0.62611374  0.95002096    -0.04300
N977        N  0.48646169  0.64079863  0.92043068    -0.57000
N978        N  0.44341694  0.62325036  0.95184542    -0.05600
N979        N  0.42894777  0.63604061  0.92332014    -0.59900
N980        N  0.48150316  0.63377504  0.03030513    -0.04600
N981        N  0.49327865  0.64934952  0.05851753    -0.57100
Mn982      Mn  0.41786682  0.59750903  0.99708738     1.20200
Mn983      Mn  0.51249812  0.60594528  0.99086704     1.10100
Cl984      Cl  0.46937976  0.55596267  0.99831686    -0.85000
C985        C  0.46443915  0.65579747  0.07734303     0.97300
C986        C  0.45616973  0.64700446  0.90394523     0.97100
N987        N  0.49141351  0.10411917  0.57003474    -0.05200
N988        N  0.50158369  0.13348667  0.58537425    -0.57300
N989        N  0.46539990  0.01902279  0.57668771    -0.04900
N990        N  0.45700441  0.98967055  0.59233840    -0.59400
N991        N  0.49915387  0.02153111  0.57387297    -0.04500
N992        N  0.51440753  0.99368762  0.58753779    -0.57300
N993        N  0.45771997  0.10076071  0.57293186    -0.04100
N994        N  0.44434933  0.12763776  0.59004430    -0.59800
C995        C  0.47188413  0.14814195  0.59783605     0.97000
C996        C  0.48766374  0.97397171  0.59911461     0.96800
N997        N  0.40188184  0.00812490  0.49045260    -0.05400
N998        N  0.38708598  0.97845448  0.48188730    -0.57900
N999        N  0.39974931  0.09167620  0.51833718    -0.03500
N1000       N  0.39019082  0.12296893  0.52874446    -0.59100
N1001       N  0.39687160  0.08902649  0.48431571    -0.05400
N1002       N  0.38530630  0.11861374  0.47117347    -0.58200
N1003       N  0.40459879  0.01065495  0.52444025    -0.03100
N1004       N  0.39171601  0.98250913  0.53960942    -0.59200
Mn1005     Mn  0.43074131  0.05538713  0.54911785     1.18400
C1006       C  0.38082786  0.96270502  0.51263807     0.99100
C1007       C  0.38135367  0.13948055  0.49913968     0.99700
N1008       N  0.54771741  0.02181698  0.51080042    -0.05400
N1009       N  0.55985713  0.99242384  0.52388576    -0.61700
N1010       N  0.53899753  0.10066113  0.47101153    -0.04200
N1011       N  0.55083225  0.12969919  0.45648512    -0.62400
N1012       N  0.54141798  0.10274695  0.50509046    -0.04900
N1013       N  0.55470262  0.13290470  0.51428545    -0.62000
N1014       N  0.54497390  0.01924328  0.47676158    -0.03800
N1015       N  0.55526247  0.98817438  0.46629775    -0.62700
Mn1016     Mn  0.52137881  0.06299869  0.54074125     1.10700
C1017       C  0.56442760  0.97174370  0.49587514     1.00300
C1018       C  0.56044648  0.14959759  0.48397569     1.00400
N1019       N  0.44470452  0.08835502  0.42076450    -0.04900
N1020       N  0.42892650  0.11544843  0.40629311    -0.60300
N1021       N  0.48619803  0.00900191  0.42265590    -0.04300
N1022       N  0.49931449  0.98127514  0.40658920    -0.57000
N1023       N  0.45247959  0.00577210  0.42587664    -0.05600
N1024       N  0.44211111  0.97582047  0.41183010    -0.59900
N1025       N  0.47840380  0.09135656  0.41777499    -0.04600
N1026       N  0.48621271  0.12040136  0.40107494    -0.57100
Mn1027     Mn  0.42262023  0.04733958  0.45454894     1.20200
Mn1028     Mn  0.51339552  0.05525943  0.44589693     1.10100
Cl1029     Cl  0.47208307  0.05524316  0.49754255    -0.85000
C1030       C  0.45516948  0.13524358  0.39380217     0.97300
C1031       C  0.47160316  0.96051156  0.39973368     0.97100
O1032       O  0.14682947  0.38911432  0.28633332    -0.87300
C1033       C  0.18932558  0.19929456  0.29909567     1.12800
O1034       O  0.18932343  0.33646650  0.24551584    -1.35100
O1035       O  0.22683530  0.27710146  0.35311972    -0.88700
O1036       O  0.18273005  0.41493838  0.24861847    -0.89400
O1037       O  0.26299496  0.38191457  0.25676957    -0.78200
O1038       O  0.18136544  0.32930181  0.31832799    -1.00300
C1039       C  0.30255946  0.28882813  0.28908935     1.22800
O1040       O  0.24766810  0.30855568  0.21673026    -1.35200
Mn1041     Mn  0.19665444  0.28488052  0.22308828     1.82100
O1042       O  0.29008682  0.31913403  0.29281573    -0.77300
O1043       O  0.25746419  0.23499947  0.32742692    -0.86700
C1044       C  0.23843157  0.22125897  0.20286442     1.13900
C1045       C  0.25043298  0.25407317  0.35330753     1.08600
O1046       O  0.17391554  0.29557226  0.17253220    -0.78200
O1047       O  0.21903938  0.27902390  0.27455058    -1.31900
O1048       O  0.19813114  0.34480963  0.17232518    -0.97400
C1049       C  0.32786522  0.34073594  0.19569529     1.07400
Mn1050     Mn  0.25278253  0.23645864  0.27403642     1.48600
O1051       O  0.30220166  0.35173388  0.17815406    -0.86600
Mn1052     Mn  0.18759340  0.37780749  0.20962838     1.49600
O1053       O  0.11001862  0.33844935  0.24275146    -0.90500
C1054       C  0.20004313  0.35048403  0.33243185     1.20500
C1055       C  0.10828729  0.35757105  0.21582261     1.12600
Mn1056     Mn  0.24077586  0.33103994  0.26822720     1.81000
O1057       O  0.25706813  0.23589035  0.22363147    -0.95700
Mn1058     Mn  0.14785770  0.33587216  0.28122714     1.49300
C1059       C  0.16364412  0.41513298  0.27535705     1.09100
Mn1060     Mn  0.28975386  0.27391245  0.21702396     1.49900
C1061       C  0.27395500  0.27927552  0.13811293     1.12000
O1062       O  0.23804871  0.38155298  0.20816339    -1.01500
O1063       O  0.21268298  0.20019032  0.27593796    -0.91100
C1064       C  0.25734980  0.39683672  0.22797465     1.23300
O1065       O  0.28883289  0.27072549  0.26736493    -1.01900
O1066       O  0.18228637  0.22473882  0.31884979    -0.89300
O1067       O  0.29101705  0.26886027  0.16405497    -0.88900
O1068       O  0.13401860  0.37433323  0.20372390    -0.88900
Mn1069     Mn  0.18602129  0.27867580  0.31763489     1.47900
O1070       O  0.20878543  0.23467561  0.19909004    -0.77400
C1071       C  0.17945515  0.32423640  0.15716190     1.16400
O1072       O  0.22916960  0.35505063  0.31822080    -0.76100
O1073       O  0.14777022  0.25994096  0.23579418    -0.75700
Mn1074     Mn  0.24861953  0.34442158  0.17531677     1.51100
O1075       O  0.32635223  0.31378973  0.21488639    -0.88100
O1076       O  0.14874491  0.28507909  0.28448871    -0.95600
O1077       O  0.25388920  0.30535549  0.13831004    -0.90600
C1078       C  0.13534866  0.26325633  0.26608643     1.14200
C1079       C  0.67662399  0.66169629  0.81460887     0.24500
C1080       C  0.66683259  0.67572622  0.78194094    -0.23600
C1081       C  0.64202573  0.65702320  0.76244393     0.19400
C1082       C  0.62694737  0.62605207  0.77570048     0.24500
C1083       C  0.63589085  0.61330185  0.80890403    -0.23500
C1084       C  0.66114630  0.63139530  0.82786880     0.19400
F1085       F  0.67116851  0.61949794  0.85951643    -0.13500
F1086       F  0.70085865  0.67768504  0.83455470    -0.15900
F1087       F  0.60278991  0.60907187  0.75653088    -0.15900
F1088       F  0.63160211  0.66911702  0.73104604    -0.13500
C1089       C  0.81047088  0.64061480  0.70917223     0.24500
C1090       C  0.77857082  0.65752653  0.70728404    -0.23600
C1091       C  0.75466893  0.64891927  0.68129659     0.19400
C1092       C  0.76329136  0.62406534  0.65636260     0.24500
C1093       C  0.79586113  0.60811518  0.65745004    -0.23500
C1094       C  0.81903633  0.61576414  0.68452758     0.19400
F1095       F  0.84995519  0.59913614  0.68705700    -0.13500
F1096       F  0.83391499  0.64954941  0.73390216    -0.15900
F1097       F  0.74050704  0.61623780  0.63070489    -0.15900
F1098       F  0.72400606  0.66599709  0.67903604    -0.13500
C1099       C  0.58452246  0.81597117  0.66538763     0.24500
C1100       C  0.60844085  0.83464603  0.68562394    -0.23600
C1101       C  0.60528767  0.87162720  0.68661426     0.19400
C1102       C  0.57871852  0.88897898  0.66943499     0.24500
C1103       C  0.55370116  0.87035702  0.65100655    -0.23500
C1104       C  0.55721771  0.83364406  0.64848231     0.19400
F1105       F  0.53351747  0.81480640  0.63048336    -0.13500
F1106       F  0.58655250  0.78071308  0.66321377    -0.15900
F1107       F  0.57599430  0.92408751  0.67336769    -0.15900
F1108       F  0.62744259  0.89172278  0.70523712    -0.13500
C1109       C  0.57932980  0.71168171  0.81169357     0.24500
C1110       C  0.57840066  0.74687593  0.80123603    -0.23600
C1111       C  0.54630954  0.76188159  0.79279405     0.19400
C1112       C  0.51578650  0.74273351  0.79695409     0.24500
C1113       C  0.51694047  0.70763517  0.80803910    -0.23500
C1114       C  0.54924814  0.69191109  0.81337776     0.19400
F1115       F  0.55164750  0.65766212  0.82211265    -0.13500
F1116       F  0.60913879  0.69654435  0.82208200    -0.15900
F1117       F  0.48516807  0.75950737  0.79269124    -0.15900
F1118       F  0.54409320  0.79587671  0.78316464    -0.13500
C1119       C  0.72978823  0.71492150  0.61046271     0.24500
C1120       C  0.75131488  0.73445267  0.63288182    -0.23600
C1121       C  0.78676117  0.73707169  0.62361036     0.19400
C1122       C  0.79989835  0.72185095  0.59313088     0.24500
C1123       C  0.77843677  0.70335763  0.57014720    -0.23500
C1124       C  0.74310718  0.69978129  0.57945941     0.19400
F1125       F  0.72138325  0.68156650  0.55853356    -0.13500
F1126       F  0.69571188  0.71111052  0.61800652    -0.15900
F1127       F  0.83374799  0.72692631  0.58521832    -0.15900
F1128       F  0.80926993  0.75512960  0.64383632    -0.13500
C1129       C  0.64751160  0.83137262  0.59582218     0.24500
C1130       C  0.66883282  0.85692629  0.61062121    -0.23600
C1131       C  0.66529808  0.89188297  0.60058268     0.19400
C1132       C  0.64085476  0.90146881  0.57617992     0.24500
C1133       C  0.61893097  0.87627738  0.56140237    -0.23500
C1134       C  0.62253247  0.84101104  0.57131715     0.19400
F1135       F  0.60222375  0.81600071  0.55689346    -0.13500
F1136       F  0.64998860  0.79757386  0.60603719    -0.15900
F1137       F  0.64010938  0.93527081  0.56566040    -0.15900
F1138       F  0.68560037  0.91703272  0.61481272    -0.13500
C1139       C  0.89421262  0.73664769  0.85601709     0.24500
C1140       C  0.92598663  0.74002510  0.83865700    -0.23600
C1141       C  0.92601471  0.74955190  0.80329875     0.19400
C1142       C  0.89480528  0.75459596  0.78558461     0.24500
C1143       C  0.86301883  0.74868664  0.80248712    -0.23500
C1144       C  0.86328045  0.73928396  0.83784611     0.19400
F1145       F  0.83370671  0.73083856  0.85473436    -0.13500
F1146       F  0.89306072  0.72910596  0.89047325    -0.15900
F1147       F  0.89587417  0.76263909  0.75126077    -0.15900
F1148       F  0.95605450  0.75155915  0.78513395    -0.13500
C1149       C  0.88340360  0.90085646  0.71702328     0.24500
C1150       C  0.88845875  0.89878097  0.68064172    -0.23600
C1151       C  0.86446472  0.87994285  0.66093901     0.19400
C1152       C  0.83732404  0.86212388  0.67696420     0.24500
C1153       C  0.83259155  0.86296611  0.71353900    -0.23500
C1154       C  0.85562779  0.88331618  0.73327555     0.19400
F1155       F  0.85217819  0.88513804  0.76830166    -0.13500
F1156       F  0.90594378  0.91919313  0.73695405    -0.15900
F1157       F  0.81617134  0.84309665  0.65613778    -0.15900
F1158       F  0.86870681  0.87640405  0.62610368    -0.13500
C1159       C  0.69268973  0.97162108  0.84611570     0.24500
C1160       C  0.65959489  0.98400960  0.83636479    -0.23600
C1161       C  0.64161910  0.96528020  0.81079937     0.19400
C1162       C  0.65577564  0.93510096  0.79562202     0.24500
C1163       C  0.68844598  0.92159790  0.80598144    -0.23500
C1164       C  0.70676855  0.94066629  0.83143723     0.19400
F1165       F  0.73809487  0.92925852  0.84246690    -0.13500
F1166       F  0.71119290  0.98920376  0.87040370    -0.15900
F1167       F  0.63637186  0.91839456  0.77143391    -0.15900
F1168       F  0.61010190  0.97649074  0.80001074    -0.13500
C1169       C  0.80224836  0.97093939  0.64674876     0.24500
C1170       C  0.82373433  0.98421096  0.67309670    -0.23600
C1171       C  0.81975210  0.97218867  0.70739775     0.19400
C1172       C  0.79405538  0.94783021  0.71527486     0.24500
C1173       C  0.77273455  0.93499063  0.68878954    -0.23500
C1174       C  0.77718417  0.94641193  0.65456239     0.19400
F1175       F  0.75690062  0.93385110  0.62861214    -0.13500
F1176       F  0.80396616  0.98321245  0.61370321    -0.15900
F1177       F  0.79077600  0.93585692  0.74829486    -0.15900
F1178       F  0.84030988  0.98457706  0.73317506    -0.13500
C1179       C  0.80456787  0.79079640  0.88801314     0.24500
C1180       C  0.77416557  0.77542564  0.87455054    -0.23600
C1181       C  0.75948123  0.74733074  0.89341248     0.19400
C1182       C  0.77540095  0.73395372  0.92328133     0.24500
C1183       C  0.80639020  0.74813522  0.93582551    -0.23500
C1184       C  0.82052404  0.77722079  0.91832416     0.19400
F1185       F  0.85032621  0.79180126  0.92994688    -0.13500
F1186       F  0.81996340  0.81751304  0.87082827    -0.15900
F1187       F  0.76033098  0.70682406  0.94017889    -0.15900
F1188       F  0.72946058  0.73230309  0.88286595    -0.13500
C1189       C  0.66953308  0.86683015  0.94956818     0.24500
C1190       C  0.65338625  0.89976864  0.94570033    -0.23600
C1191       C  0.64531667  0.91149404  0.91230996     0.19400
C1192       C  0.64749864  0.88894041  0.88438218     0.24500
C1193       C  0.66259901  0.85562879  0.88802183    -0.23500
C1194       C  0.67524645  0.84557009  0.92066900     0.19400
F1195       F  0.69076539  0.81414264  0.92526805    -0.13500
F1196       F  0.67739564  0.85365724  0.98129701    -0.15900
F1197       F  0.63267880  0.89934111  0.85430494    -0.15900
F1198       F  0.63262685  0.94407393  0.90702198    -0.13500
C1199       C  0.76519293  0.62592175  0.29497139     0.24500
C1200       C  0.77517066  0.65820287  0.30915758    -0.23600
C1201       C  0.78735384  0.65921246  0.34360028     0.19400
C1202       C  0.78949579  0.62884841  0.36330957     0.24500
C1203       C  0.78303612  0.59616238  0.34801414    -0.23500
C1204       C  0.77006318  0.59513171  0.31375833     0.19400
F1205       F  0.76461723  0.56436037  0.29719875    -0.13500
F1206       F  0.75327469  0.62369584  0.26187877    -0.15900
F1207       F  0.79959983  0.63134237  0.39700544    -0.15900
F1208       F  0.79871541  0.68935396  0.35798470    -0.13500
C1209       C  0.61290527  0.64380667  0.21729467     0.24500
C1210       C  0.62707993  0.62989216  0.18635192    -0.23600
C1211       C  0.66026528  0.64012194  0.17643843     0.19400
C1212       C  0.67846605  0.66471025  0.19575991     0.24500
C1213       C  0.66343533  0.68140565  0.22506735    -0.23500
C1214       C  0.63062132  0.67003380  0.23613175     0.19400
F1215       F  0.61511774  0.68524720  0.26388814    -0.13500
F1216       F  0.58153732  0.63271397  0.22861204    -0.15900
F1217       F  0.71093858  0.67278201  0.18489697    -0.15900
F1218       F  0.67552517  0.62559456  0.14812448    -0.13500
C1219       C  0.58654210  0.71655928  0.17789394     0.24500
C1220       C  0.58378927  0.74859278  0.19565005    -0.23600
C1221       C  0.55090429  0.76063794  0.20552281     0.19400
C1222       C  0.52142895  0.74170150  0.19609853     0.24500
C1223       C  0.52477434  0.70943868  0.17858707    -0.23500
C1224       C  0.55757611  0.69657541  0.17136770     0.19400
F1225       F  0.56138471  0.66481325  0.15670679    -0.13500
F1226       F  0.61720222  0.70474785  0.16554213    -0.15900
F1227       F  0.48989740  0.75606703  0.20215917    -0.15900
F1228       F  0.54703992  0.79177659  0.22188814    -0.13500
C1229       C  0.59617128  0.86956760  0.31038137     0.24500
C1230       C  0.60530951  0.83387479  0.31423355    -0.23600
C1231       C  0.58202936  0.81266580  0.33308126     0.19400
C1232       C  0.55060877  0.82647846  0.34666032     0.24500
C1233       C  0.54158036  0.86207006  0.34223234    -0.23500
C1234       C  0.56520400  0.88322804  0.32408215     0.19400
F1235       F  0.55764005  0.91727863  0.31808850    -0.13500
F1236       F  0.61712841  0.89181115  0.29275098    -0.15900
F1237       F  0.52904166  0.80495737  0.36438245    -0.15900
F1238       F  0.58919763  0.77835596  0.33777554    -0.13500
C1239       C  0.62752035  0.84442895  0.42528528     0.24500
C1240       C  0.62743519  0.87763654  0.44056992    -0.23600
C1241       C  0.65449505  0.90117474  0.43374201     0.19400
C1242       C  0.68034267  0.89231935  0.41046207     0.24500
C1243       C  0.67978864  0.85969738  0.39433519    -0.23500
C1244       C  0.65364613  0.83553969  0.40196722     0.19400
F1245       F  0.65242234  0.80435375  0.38527532    -0.13500
F1246       F  0.60208707  0.82111323  0.43251290    -0.15900
F1247       F  0.70494978  0.91621986  0.40214670    -0.15900
F1248       F  0.65608277  0.93260730  0.44998120    -0.13500
C1249       C  0.78309645  0.75830656  0.39538903     0.24500
C1250       C  0.75337133  0.74590726  0.37769233    -0.23600
C1251       C  0.73554377  0.71738535  0.39261801     0.19400
C1252       C  0.74799573  0.70103391  0.42320930     0.24500
C1253       C  0.77856419  0.71269036  0.43959380    -0.23500
C1254       C  0.79546952  0.74185361  0.42553281     0.19400
F1255       F  0.82419316  0.75470384  0.44127715    -0.13500
F1256       F  0.80070788  0.78649510  0.38343730    -0.15900
F1257       F  0.73077925  0.67308197  0.43619660    -0.15900
F1258       F  0.70695355  0.70431620  0.37687310    -0.13500
C1259       C  0.62188001  0.87474558  0.07764112     0.24500
C1260       C  0.64532697  0.90115438  0.06801469    -0.23600
C1261       C  0.67909560  0.90089840  0.08160776     0.19400
C1262       C  0.68889109  0.87496553  0.10507280     0.24500
C1263       C  0.66481902  0.84968558  0.11532598    -0.23500
C1264       C  0.63156678  0.84940992  0.10124445     0.19400
F1265       F  0.60823351  0.82475676  0.11099072    -0.13500
F1266       F  0.58993106  0.87251905  0.06315444    -0.15900
F1267       F  0.72117469  0.87531232  0.11890797    -0.15900
F1268       F  0.70237573  0.92563312  0.07209424    -0.13500
C1269       C  0.76819232  0.73622625  0.11583701     0.24500
C1270       C  0.77856054  0.76843632  0.13087003    -0.23600
C1271       C  0.80238792  0.78879654  0.11171135     0.19400
C1272       C  0.81611938  0.77673611  0.07960590     0.24500
C1273       C  0.80699040  0.74367701  0.06598427    -0.23500
C1274       C  0.78254052  0.72397949  0.08448074     0.19400
F1275       F  0.77186802  0.69276005  0.07172516    -0.13500
F1276       F  0.74435374  0.71576073  0.13177886    -0.15900
F1277       F  0.83896219  0.79713251  0.06216339    -0.15900
F1278       F  0.81262580  0.82030849  0.12404121    -0.13500
C1279       C  0.69092584  0.96502081  0.15102280     0.24500
C1280       C  0.65457862  0.96922378  0.15364765    -0.23600
C1281       C  0.63587014  0.94512311  0.17328805     0.19400
C1282       C  0.65262519  0.91805970  0.19040060     0.24500
C1283       C  0.68915926  0.91369304  0.18848895    -0.23500
C1284       C  0.70805243  0.93742831  0.16819933     0.19400
F1285       F  0.74298777  0.93487768  0.16613490    -0.13500
F1286       F  0.70997126  0.98834562  0.13266060    -0.15900
F1287       F  0.63241689  0.89678014  0.21003253    -0.15900
F1288       F  0.60136646  0.94931756  0.17850049    -0.13500
C1289       C  0.77757366  0.00795543  0.30397208     0.24500
C1290       C  0.81268604  0.00781537  0.31378213    -0.23600
C1291       C  0.83015835  0.97588989  0.31631973     0.19400
C1292       C  0.81225545  0.94472652  0.31266192     0.24500
C1293       C  0.77692590  0.94449169  0.30390744    -0.23500
C1294       C  0.76003661  0.97654241  0.29835264     0.19400
F1295       F  0.72594104  0.97764572  0.29000198    -0.13500
F1296       F  0.75946762  0.03824045  0.30228365    -0.15900
F1297       F  0.82942068  0.91484095  0.31942582    -0.15900
F1298       F  0.86442518  0.97477578  0.32404350    -0.13500
C1299       C  0.89165885  0.86435010  0.32497264     0.24500
C1300       C  0.90946888  0.88913282  0.30498110    -0.23600
C1301       C  0.89692459  0.89598443  0.27111061     0.19400
C1302       C  0.86637795  0.87961449  0.25845428     0.24500
C1303       C  0.84791002  0.85542530  0.27912027    -0.23500
C1304       C  0.86195229  0.84751215  0.31229006     0.19400
F1305       F  0.84641175  0.82392928  0.33345049    -0.13500
F1306       F  0.90330414  0.85603884  0.35718017    -0.15900
F1307       F  0.85466560  0.88792480  0.22629725    -0.15900
F1308       F  0.91371353  0.91924483  0.25057151    -0.13500
C1309       C  0.90953805  0.76849177  0.17014729     0.24500
C1310       C  0.90682729  0.74536705  0.14134494    -0.23600
C1311       C  0.87449901  0.73006126  0.13531138     0.19400
C1312       C  0.85008397  0.72872264  0.16158670     0.24500
C1313       C  0.85500837  0.74751793  0.19271900    -0.23500
C1314       C  0.88381311  0.76941972  0.19551504     0.19400
F1315       F  0.88812758  0.79052731  0.22352129    -0.13500
F1316       F  0.93692684  0.78986491  0.17502206    -0.15900
F1317       F  0.82226363  0.70773355  0.15666027    -0.15900
F1318       F  0.86717709  0.71433700  0.10472454    -0.13500
C1319       C  0.15772324  0.67525861  0.69422641     0.24500
C1320       C  0.18942995  0.69083195  0.68445598    -0.23600
C1321       C  0.20592441  0.67889413  0.65400732     0.19400
C1322       C  0.19155859  0.65124195  0.63468602     0.24500
C1323       C  0.16015769  0.63583113  0.64505890    -0.23500
C1324       C  0.14333376  0.64840046  0.67469333     0.19400
F1325       F  0.11355499  0.63328911  0.68587266    -0.13500
F1326       F  0.14053587  0.68550364  0.72325352    -0.15900
F1327       F  0.20833125  0.63932881  0.60607497    -0.15900
F1328       F  0.23568821  0.69396782  0.64285629    -0.13500
C1329       C  0.25325612  0.63055371  0.79900750     0.24500
C1330       C  0.26962187  0.66248512  0.80650127    -0.23600
C1331       C  0.30269647  0.66202527  0.82176353     0.19400
C1332       C  0.31933421  0.63071280  0.82845007     0.24500
C1333       C  0.30215216  0.59897313  0.82349216    -0.23500
C1334       C  0.26899038  0.59907925  0.80825470     0.19400
F1335       F  0.25082361  0.56904296  0.80417770    -0.13500
F1336       F  0.22104594  0.62969985  0.78500378    -0.15900
F1337       F  0.35211646  0.63142932  0.84081539    -0.15900
F1338       F  0.31862096  0.69181360  0.83178957    -0.13500
C1339       C  0.35539690  0.75467577  0.80520497     0.24500
C1340       C  0.33791043  0.74364663  0.77487586    -0.23600
C1341       C  0.34836981  0.71222932  0.75894168     0.19400
C1342       C  0.37525058  0.69218450  0.77350620     0.24500
C1343       C  0.39139761  0.70293343  0.80450872    -0.23500
C1344       C  0.38149989  0.73448050  0.81980164     0.19400
F1345       F  0.39785463  0.74622064  0.84875436    -0.13500
F1346       F  0.34708472  0.78505929  0.82129772    -0.15900
F1347       F  0.38525749  0.66221107  0.75765224    -0.15900
F1348       F  0.33208555  0.70047055  0.72999523    -0.13500
C1349       C  0.37467993  0.90237791  0.69722412     0.24500
C1350       C  0.36355904  0.86767504  0.69904499    -0.23600
C1351       C  0.38423174  0.84105286  0.68506562     0.19400
C1352       C  0.41541478  0.84934082  0.66843575     0.24500
C1353       C  0.42659228  0.88428227  0.66655156    -0.23500
C1354       C  0.40623964  0.91053387  0.68206414     0.19400
F1355       F  0.41715021  0.94420767  0.68323488    -0.13500
F1356       F  0.35523233  0.92847008  0.71094062    -0.15900
F1357       F  0.43409434  0.82342820  0.65342490    -0.15900
F1358       F  0.37361244  0.80732463  0.68640673    -0.13500
C1359       C  0.28535866  0.87337326  0.62609679     0.24500
C1360       C  0.28616356  0.83744527  0.63439880    -0.23600
C1361       C  0.30955908  0.81572863  0.61658366     0.19400
C1362       C  0.33026855  0.82938485  0.58988793     0.24500
C1363       C  0.32822738  0.86496844  0.58105840    -0.23500
C1364       C  0.30617449  0.88683929  0.59997628     0.19400
F1365       F  0.30263073  0.92101960  0.59136231    -0.13500
F1366       F  0.26386616  0.89587424  0.64275835    -0.15900
F1367       F  0.35145721  0.80772652  0.57184541    -0.15900
F1368       F  0.31163933  0.78122568  0.62415730    -0.13500
C1369       C  0.17436003  0.72960434  0.55314507     0.24500
C1370       C  0.13918056  0.72520176  0.54431091    -0.23600
C1371       C  0.11368542  0.74006555  0.56588851     0.19400
C1372       C  0.12290142  0.75668060  0.59653780     0.24500
C1373       C  0.15778431  0.76057878  0.60550895    -0.23500
C1374       C  0.18357401  0.74784677  0.58326711     0.19400
F1375       F  0.21750442  0.75184255  0.59141021    -0.13500
F1376       F  0.19977424  0.71546876  0.53330219    -0.15900
F1377       F  0.09756181  0.76956971  0.61733207    -0.15900
F1378       F  0.07968892  0.73929810  0.55706920    -0.13500
C1379       C  0.06164687  0.78187859  0.85325807     0.24500
C1380       C  0.05335439  0.74615691  0.85037797    -0.23600
C1381       C  0.07367141  0.72481068  0.82910935     0.19400
C1382       C  0.10097571  0.73873874  0.81023377     0.24500
C1383       C  0.10915004  0.77468246  0.81218814    -0.23500
C1384       C  0.08957807  0.79601528  0.83451879     0.19400
F1385       F  0.09671134  0.83056034  0.83741494    -0.13500
F1386       F  0.04217608  0.80314921  0.87356204    -0.15900
F1387       F  0.11894893  0.71663016  0.78939029    -0.15900
F1388       F  0.06560240  0.69061563  0.82456943    -0.13500
C1389       C  0.05769108  0.86564709  0.71427598     0.24500
C1390       C  0.07864009  0.85189155  0.68780453    -0.23600
C1391       C  0.06764090  0.85373440  0.65323403     0.19400
C1392       C  0.03626743  0.86915883  0.64496531     0.24500
C1393       C  0.01602825  0.88516843  0.67089041    -0.23500
C1394       C  0.02673352  0.88276175  0.70583468     0.19400
F1395       F  0.00784837  0.89767955  0.73158632    -0.13500
F1396       F  0.06784298  0.86367477  0.74796623    -0.15900
F1397       F  0.02541740  0.86781778  0.61144444    -0.15900
F1398       F  0.08715230  0.83996009  0.62730586    -0.13500
C1399       C  0.25669742  0.96847195  0.80768332     0.24500
C1400       C  0.28331417  0.94845517  0.79303214    -0.23600
C1401       C  0.31776411  0.95918265  0.79641531     0.19400
C1402       C  0.32572224  0.98951797  0.81430669     0.24500
C1403       C  0.29944863  0.00889695  0.83074548    -0.23500
C1404       C  0.26473649  0.99836252  0.82692160     0.19400
F1405       F  0.23879883  0.01631539  0.84257677    -0.13500
F1406       F  0.22322221  0.95821884  0.80466339    -0.15900
F1407       F  0.35922330  0.00020287  0.81498599    -0.15900
F1408       F  0.34383871  0.94035290  0.78200681    -0.13500
C1409       C  0.14005206  0.95680129  0.66805864     0.24500
C1410       C  0.11362266  0.97177065  0.68793300    -0.23600
C1411       C  0.10805161  0.95977036  0.72204323     0.19400
C1412       C  0.12910044  0.93339697  0.73613225     0.24500
C1413       C  0.15655835  0.91932920  0.71651402    -0.23500
C1414       C  0.16137649  0.93130003  0.68209592     0.19400
F1415       F  0.18730570  0.91889395  0.66173191    -0.13500
F1416       F  0.14689180  0.96865050  0.63551652    -0.15900
F1417       F  0.12284181  0.92202718  0.76891026    -0.15900
F1418       F  0.08268987  0.97408875  0.74182591    -0.13500
C1419       C  0.24723065  0.91148904  0.90796281     0.24500
C1420       C  0.28211167  0.90744295  0.91757237    -0.23600
C1421       C  0.30364404  0.88605230  0.89761722     0.19400
C1422       C  0.29039940  0.86754870  0.86962346     0.24500
C1423       C  0.25504963  0.87013590  0.86049156    -0.23500
C1424       C  0.23382812  0.89324784  0.87931967     0.19400
F1425       F  0.20004165  0.89741355  0.87076762    -0.13500
F1426       F  0.22604685  0.93237491  0.92689346    -0.15900
F1427       F  0.31244602  0.84633641  0.85207083    -0.15900
F1428       F  0.33720384  0.88099915  0.90676856    -0.13500
C1429       C  0.16472733  0.70303152  0.93473222     0.24500
C1430       C  0.14235771  0.72703667  0.95075626    -0.23600
C1431       C  0.13911342  0.76088988  0.93703195     0.19400
C1432       C  0.15733112  0.77015172  0.90696775     0.24500
C1433       C  0.17871057  0.74558044  0.89061710    -0.23500
C1434       C  0.18256149  0.71219843  0.90477513     0.19400
F1435       F  0.20371144  0.68844651  0.88943627    -0.13500
F1436       F  0.16973950  0.67079955  0.94846832    -0.15900
F1437       F  0.15330774  0.80248957  0.89320584    -0.15900
F1438       F  0.11775054  0.78449676  0.95221250    -0.13500
C1439       C  0.81114743  0.44694620  0.69159707     0.24500
C1440       C  0.77666035  0.43626644  0.69482534    -0.23600
C1441       C  0.75112214  0.45050416  0.67331571     0.19400
C1442       C  0.76025822  0.47543143  0.64852013     0.24500
C1443       C  0.79487933  0.48635632  0.64554121    -0.23500
C1444       C  0.82019724  0.47190688  0.66741497     0.19400
F1445       F  0.85344139  0.48341168  0.66697814    -0.13500
F1446       F  0.83619253  0.43314796  0.71218198    -0.15900
F1447       F  0.73541981  0.48946701  0.62792383    -0.15900
F1448       F  0.71783586  0.43946911  0.67558027    -0.13500
C1449       C  0.63739254  0.44205060  0.76040293     0.24500
C1450       C  0.65619717  0.41860300  0.78142923    -0.23600
C1451       C  0.65916455  0.42716216  0.81723406     0.19400
C1452       C  0.64504933  0.45798026  0.83112699     0.24500
C1453       C  0.62724527  0.48194970  0.81012332    -0.23500
C1454       C  0.62334191  0.47332230  0.77448598     0.19400
F1455       F  0.60589956  0.49528673  0.75314166    -0.13500
F1456       F  0.63327517  0.43527760  0.72606737    -0.15900
F1457       F  0.65057557  0.46520921  0.86519569    -0.15900
F1458       F  0.67651893  0.40587902  0.83936237    -0.13500
C1459       C  0.56894089  0.35752266  0.84116699     0.24500
C1460       C  0.58161301  0.35346848  0.80750018    -0.23600
C1461       C  0.57087173  0.37603143  0.78090349     0.19400
C1462       C  0.54727373  0.40268578  0.78833869     0.24500
C1463       C  0.53480761  0.40684212  0.82242683    -0.23500
C1464       C  0.54586198  0.38383207  0.84866344     0.19400
F1465       F  0.53289879  0.38545161  0.88142433    -0.13500
F1466       F  0.57948689  0.33604008  0.86711324    -0.15900
F1467       F  0.53629860  0.42407385  0.76250478    -0.15900
F1468       F  0.58408631  0.37297946  0.74836307    -0.13500
C1469       C  0.58744390  0.23344485  0.69464842     0.24500
C1470       C  0.59667719  0.26917007  0.69289727    -0.23600
C1471       C  0.57311859  0.29210213  0.67671955     0.19400
C1472       C  0.54137699  0.27963323  0.66302215     0.24500
C1473       C  0.53255978  0.24384523  0.66474196    -0.23500
C1474       C  0.55612323  0.22116871  0.68101114     0.19400
F1475       F  0.54845213  0.18679170  0.68470713    -0.13500
F1476       F  0.60883759  0.20978081  0.70969667    -0.15900
F1477       F  0.51950287  0.30252974  0.64759064    -0.15900
F1478       F  0.58043430  0.32665313  0.67464674    -0.13500
C1479       C  0.64193885  0.20465954  0.56623625     0.24500
C1480       C  0.62929869  0.23366785  0.54764782    -0.23600
C1481       C  0.63713086  0.26751101  0.55949513     0.19400
C1482       C  0.65643838  0.27207774  0.58991618     0.24500
C1483       C  0.66746988  0.24289374  0.60896353    -0.23500
C1484       C  0.66007626  0.20928340  0.59693613     0.19400
F1485       F  0.67129511  0.18075061  0.61453901    -0.13500
F1486       F  0.63772994  0.17161697  0.55417819    -0.15900
F1487       F  0.66333468  0.30484075  0.60140285    -0.15900
F1488       F  0.62562925  0.29600761  0.54207577    -0.13500
C1489       C  0.78959288  0.35906969  0.63022877     0.24500
C1490       C  0.75322149  0.36093139  0.63523063    -0.23600
C1491       C  0.73396127  0.38160349  0.61209005     0.19400
C1492       C  0.75049789  0.39880788  0.58419290     0.24500
C1493       C  0.78668094  0.39605277  0.57914579    -0.23500
C1494       C  0.80586624  0.37643143  0.60292075     0.19400
F1495       F  0.84042235  0.37192811  0.59845084    -0.13500
F1496       F  0.81001691  0.33966745  0.65142346    -0.15900
F1497       F  0.73106115  0.41766514  0.56166138    -0.15900
F1498       F  0.69914950  0.38423329  0.61566960    -0.13500
C1499       C  0.78748839  0.14542790  0.71859200     0.24500
C1500       C  0.76476906  0.15723385  0.69274915    -0.23600
C1501       C  0.76566898  0.14264030  0.65948937     0.19400
C1502       C  0.78980032  0.11717745  0.65156643     0.24500
C1503       C  0.81399054  0.10655847  0.67664724    -0.23500
C1504       C  0.81203815  0.11989842  0.71057853     0.19400
F1505       F  0.83433278  0.10881087  0.73545440    -0.13500
F1506       F  0.78713131  0.15998211  0.75074496    -0.15900
F1507       F  0.78932489  0.10258908  0.61940331    -0.15900
F1508       F  0.74380486  0.15401854  0.63432968    -0.13500
C1509       C  0.70695220  0.15780580  0.83083639     0.24500
C1510       C  0.68591278  0.17923393  0.80978924    -0.23600
C1511       C  0.65119717  0.16835926  0.80448479     0.19400
C1512       C  0.63835740  0.13733756  0.81881802     0.24500
C1513       C  0.65933628  0.11563004  0.83922853    -0.23500
C1514       C  0.69388513  0.12629131  0.84516064     0.19400
F1515       F  0.71492495  0.10635372  0.86515777    -0.13500
F1516       F  0.74019912  0.16705139  0.83731808    -0.15900
F1517       F  0.60530043  0.12786234  0.81151933    -0.15900
F1518       F  0.62909153  0.18762445  0.78493820    -0.13500
C1519       C  0.89451301  0.34500072  0.84482035     0.24500
C1520       C  0.90335905  0.38026846  0.85037529    -0.23600
C1521       C  0.88601684  0.40640361  0.83161701     0.19400
C1522       C  0.86148876  0.39745686  0.80705412     0.24500
C1523       C  0.85372571  0.36227106  0.80046447    -0.23500
C1524       C  0.87002868  0.33603777  0.81968395     0.19400
F1525       F  0.86146155  0.30203047  0.81489903    -0.13500
F1526       F  0.91035579  0.31928777  0.86307417    -0.15900
F1527       F  0.84539581  0.42342588  0.78928359    -0.15900
F1528       F  0.89430886  0.44065965  0.83511527    -0.13500
C1529       C  0.89365849  0.21034058  0.72670692     0.24500
C1530       C  0.90053147  0.21022354  0.69041299    -0.23600
C1531       C  0.87449917  0.22365398  0.66862229     0.19400
C1532       C  0.84334245  0.23688591  0.68216630     0.24500
C1533       C  0.83648669  0.23768482  0.71837666    -0.23500
C1534       C  0.86215606  0.22378091  0.74041649     0.19400
F1535       F  0.85743774  0.22432722  0.77533276    -0.13500
F1536       F  0.91747127  0.19743981  0.74915291    -0.15900
F1537       F  0.81995422  0.24973053  0.65921061    -0.15900
F1538       F  0.87977617  0.22589752  0.63383944    -0.13500
C1539       C  0.80023294  0.39103430  0.89131958     0.24500
C1540       C  0.81792414  0.37167934  0.91645646    -0.23600
C1541       C  0.81922275  0.33492570  0.91265961     0.19400
C1542       C  0.80211224  0.31803366  0.88496587     0.24500
C1543       C  0.78287533  0.33747193  0.86082829    -0.23500
C1544       C  0.78275350  0.37437950  0.86431402     0.19400
F1545       F  0.76451733  0.39495766  0.84223694    -0.13500
F1546       F  0.79723190  0.42619599  0.89440579    -0.15900
F1547       F  0.80287300  0.28270903  0.88291568    -0.15900
F1548       F  0.83606385  0.31523593  0.93655318    -0.13500
C1549       C  0.69017036  0.23301518  0.90745946     0.24500
C1550       C  0.66324627  0.25262684  0.89275180    -0.23600
C1551       C  0.63068795  0.25314748  0.90864031     0.19400
C1552       C  0.62471003  0.23378955  0.93856457     0.24500
C1553       C  0.65101955  0.21278457  0.95265585    -0.23500
C1554       C  0.68404250  0.21300933  0.93731367     0.19400
F1555       F  0.70979566  0.19290943  0.95042389    -0.13500
F1556       F  0.72171907  0.23197668  0.89199476    -0.15900
F1557       F  0.59309706  0.23559030  0.95386711    -0.15900
F1558       F  0.60456115  0.27238936  0.89497647    -0.13500
C1559       C  0.66291848  0.45391514  0.15143413     0.24500
C1560       C  0.66777543  0.44284559  0.18570855    -0.23600
C1561       C  0.65318538  0.46195560  0.21312707     0.19400
C1562       C  0.63349820  0.49180545  0.20611099     0.24500
C1563       C  0.62913962  0.50333136  0.17159530    -0.23500
C1564       C  0.64473799  0.48426861  0.14446545     0.19400
F1565       F  0.64385356  0.49573367  0.11110343    -0.13500
F1566       F  0.67669390  0.43574385  0.12451280    -0.15900
F1567       F  0.61854748  0.50916420  0.23293128    -0.15900
F1568       F  0.65709748  0.45110300  0.24645339    -0.13500
C1569       C  0.73085780  0.43124178  0.33824320     0.24500
C1570       C  0.75011452  0.41648472  0.31085525    -0.23600
C1571       C  0.78466686  0.42774957  0.30603380     0.19400
C1572       C  0.79922179  0.45309337  0.32736833     0.24500
C1573       C  0.77987647  0.46843727  0.35402287    -0.23500
C1574       C  0.74553547  0.45729401  0.35942177     0.19400
F1575       F  0.72606353  0.47216705  0.38474939    -0.13500
F1576       F  0.69784084  0.42086509  0.34429111    -0.15900
F1577       F  0.83180050  0.46437225  0.32035643    -0.15900
F1578       F  0.80476482  0.41462528  0.28022471    -0.13500
C1579       C  0.75519452  0.36651733  0.40857500     0.24500
C1580       C  0.78176449  0.35245818  0.38798499    -0.23600
C1581       C  0.81612814  0.35542274  0.39884952     0.19400
C1582       C  0.82409008  0.37134547  0.43021167     0.24500
C1583       C  0.79797819  0.38681817  0.45061830    -0.23500
C1584       C  0.76328136  0.38415457  0.43951945     0.19400
F1585       F  0.73740083  0.39908018  0.45815198    -0.13500
F1586       F  0.72172724  0.36413482  0.39817074    -0.15900
F1587       F  0.85748801  0.37056497  0.44106492    -0.15900
F1588       F  0.84216807  0.34199673  0.37934292    -0.13500
C1589       C  0.67370569  0.24602941  0.38386641     0.24500
C1590       C  0.66080388  0.27553970  0.36591705    -0.23600
C1591       C  0.62944931  0.29050676  0.37690441     0.19400
C1592       C  0.61108996  0.27562388  0.40473334     0.24500
C1593       C  0.62361350  0.24539370  0.42116335    -0.23500
C1594       C  0.65505437  0.23098983  0.41070626     0.19400
F1595       F  0.66803512  0.20242009  0.42700298    -0.13500
F1596       F  0.70437420  0.23104232  0.37521925    -0.15900
F1597       F  0.58090108  0.29021952  0.41527340    -0.14700
F1598       F  0.61597488  0.31840165  0.35998668    -0.13500
C1599       C  0.67580899  0.11063995  0.16467059     0.24500
C1600       C  0.64245057  0.09635202  0.16790917    -0.23600
C1601       C  0.61810781  0.11250601  0.18977099     0.19400
C1602       C  0.62629864  0.14337930  0.20669074     0.24500
C1603       C  0.65914260  0.15814150  0.20271615    -0.23500
C1604       C  0.68420287  0.14144427  0.18227857     0.19400
F1605       F  0.71616532  0.15561027  0.17848566    -0.13500
F1606       F  0.69970215  0.09541548  0.14373892    -0.15900
F1607       F  0.60218179  0.15890790  0.22718878    -0.15900
F1608       F  0.58637866  0.09818046  0.19494122    -0.13500
C1609       C  0.78433067  0.18367690  0.31534978     0.24500
C1610       C  0.78427333  0.18999145  0.27914139    -0.23600
C1611       C  0.80587187  0.16962124  0.25783930     0.19400
C1612       C  0.82574771  0.14260937  0.27233290     0.24500
C1613       C  0.82458735  0.13583271  0.30834555    -0.23500
C1614       C  0.80432248  0.15724148  0.32963706     0.19400
F1615       F  0.80159406  0.15089101  0.36423623    -0.13500
F1616       F  0.76436843  0.20261936  0.33740924    -0.15900
F1617       F  0.84521547  0.12225154  0.25109719    -0.15900
F1618       F  0.80672336  0.17482751  0.22298724    -0.13500
C1619       C  0.76235816  0.39806663  0.09074049     0.24500
C1620       C  0.76368878  0.36372009  0.10308473    -0.23600
C1621       C  0.78326915  0.33870135  0.08515632     0.19400
C1622       C  0.80213151  0.34838818  0.05554714     0.24500
C1623       C  0.80099581  0.38304773  0.04337492    -0.23500
C1624       C  0.78033203  0.40754529  0.06093263     0.19400
F1625       F  0.77708206  0.44069345  0.04893934    -0.13500
F1626       F  0.74351567  0.42259234  0.10771394    -0.15900
F1627       F  0.82225694  0.32430534  0.03942744    -0.15900
F1628       F  0.78526893  0.30546957  0.09713753    -0.13500
C1629       C  0.71020170  0.21351483  0.11454369     0.24500
C1630       C  0.68804386  0.23491451  0.13427056    -0.23600
C1631       C  0.65221836  0.23436209  0.12682228     0.19400
C1632       C  0.63923710  0.21446613  0.09962579     0.24500
C1633       C  0.66151328  0.19489720  0.07860438    -0.23500
C1634       C  0.69704412  0.19394680  0.08661791     0.19400
F1635       F  0.71903823  0.17482331  0.06679012    -0.13500
F1636       F  0.74460294  0.21244543  0.12141094    -0.15900
F1637       F  0.60493787  0.21648957  0.09226116    -0.15900
F1638       F  0.62933015  0.25379432  0.14532560    -0.13500
C1639       C  0.01248317  0.36719300  0.19737761     0.24500
C1640       C  0.01285082  0.37278803  0.16122318    -0.23600
C1641       C  0.04432618  0.37149851  0.14326674     0.19400
C1642       C  0.07509048  0.36703946  0.16125923     0.24500
C1643       C  0.07508167  0.36095904  0.19725580    -0.23500
C1644       C  0.04337936  0.36071485  0.21521184     0.19400
F1645       F  0.04255059  0.35715045  0.25028987    -0.13500
F1646       F  0.98265262  0.37041027  0.21573429    -0.15900
F1647       F  0.10503341  0.37056729  0.14354035    -0.15900
F1648       F  0.04543626  0.37614791  0.10830579    -0.13500
C1649       C  0.84109433  0.37188343  0.18772831     0.24500
C1650       C  0.83139052  0.33664872  0.18220492    -0.23600
C1651       C  0.84906920  0.31735711  0.15664111     0.19400
C1652       C  0.87681683  0.33253817  0.13841784     0.24500
C1653       C  0.88660137  0.36733041  0.14497461    -0.23500
C1654       C  0.86807251  0.38688035  0.16925031     0.19400
F1655       F  0.87778516  0.42004434  0.17704396    -0.13500
F1656       F  0.82514259  0.39213994  0.21183738    -0.15900
F1657       F  0.89473616  0.31312682  0.11505820    -0.15900
F1658       F  0.84012289  0.28381560  0.14983469    -0.13500
C1659       C  0.05674738  0.20290721  0.27848569     0.24500
C1660       C  0.05147570  0.20541771  0.31479162    -0.23600
C1661       C  0.07541310  0.22429688  0.33448216     0.19400
C1662       C  0.10243897  0.24219192  0.31844699     0.24500
C1663       C  0.10710803  0.24141710  0.28184221    -0.23500
C1664       C  0.08446334  0.22052871  0.26219051     0.19400
F1665       F  0.08818114  0.21830274  0.22722111    -0.13500
F1666       F  0.03439411  0.18420126  0.25868448    -0.15900
F1667       F  0.12343113  0.26135831  0.33931718    -0.15900
F1668       F  0.07109761  0.22797761  0.36930258    -0.13500
C1669       C  0.90522804  0.24175737  0.34975046     0.24500
C1670       C  0.92470150  0.22379746  0.32452938    -0.23600
C1671       C  0.91401273  0.22524478  0.28950042     0.19400
C1672       C  0.88384154  0.24341227  0.28028762     0.24500
C1673       C  0.86378415  0.25957555  0.30606133    -0.23500
C1674       C  0.87473378  0.25857577  0.34071559     0.19400
F1675       F  0.85569011  0.27399020  0.36605778    -0.13500
F1676       F  0.91588654  0.24350338  0.38331351    -0.15900
F1677       F  0.87335507  0.24379407  0.24665091    -0.15900
F1678       F  0.93202630  0.20817986  0.26445349    -0.13500
C1679       C  0.39837066  0.82807999  0.34127480     0.24500
C1680       C  0.41026932  0.86251926  0.33554629    -0.23600
C1681       C  0.39045631  0.88395272  0.31365840     0.19400
C1682       C  0.35965108  0.87194390  0.29841652     0.24500
C1683       C  0.34655329  0.83798229  0.30511887    -0.23500
C1684       C  0.36682240  0.81606796  0.32652778     0.19400
F1685       F  0.35615950  0.78305280  0.33335023    -0.13500
F1686       F  0.41685799  0.80625603  0.36186265    -0.15900
F1687       F  0.34196012  0.89461489  0.27801184    -0.15900
F1688       F  0.40113874  0.91695455  0.30663785    -0.13500
C1689       C  0.38441902  0.76754278  0.16711888     0.24500
C1690       C  0.36404913  0.76289423  0.19655891    -0.23600
C1691       C  0.36656636  0.73243302  0.21653672     0.19400
C1692       C  0.38759522  0.70525132  0.20537817     0.24500
C1693       C  0.40637652  0.70902779  0.17458625    -0.23500
C1694       C  0.40561049  0.74072304  0.15611971     0.19400
F1695       F  0.42581575  0.74577031  0.12767506    -0.13500
F1696       F  0.38190948  0.79711639  0.14785028    -0.15900
F1697       F  0.38949612  0.67536088  0.22415814    -0.15900
F1698       F  0.34734298  0.72859459  0.24577343    -0.13500
C1699       C  0.13269970  0.72783709  0.39385449     0.24500
C1700       C  0.15073341  0.70715970  0.41743471    -0.23600
C1701       C  0.18681053  0.70284577  0.41299631     0.19400
C1702       C  0.20465839  0.72007451  0.38597688     0.24500
C1703       C  0.18672761  0.74232748  0.36331796    -0.23500
C1704       C  0.15017275  0.74528435  0.36752644     0.19400
F1705       F  0.13067293  0.76623404  0.34688152    -0.13500
F1706       F  0.09828583  0.73372785  0.39801853    -0.15900
F1707       F  0.23938010  0.71609765  0.38296954    -0.15900
F1708       F  0.20488693  0.68291101  0.43572686    -0.13500
C1709       C  0.26067637  0.85269142  0.42539727     0.24500
C1710       C  0.27510547  0.86125201  0.39293845    -0.23600
C1711       C  0.30974995  0.87253132  0.39162080     0.19400
C1712       C  0.32946133  0.87513934  0.42157545     0.24500
C1713       C  0.31432156  0.86958686  0.45423740    -0.23500
C1714       C  0.27983673  0.85758832  0.45586409     0.19400
F1715       F  0.26373045  0.85290159  0.48684269    -0.13500
F1716       F  0.22732524  0.84191804  0.42799412    -0.15900
F1717       F  0.36315768  0.88480357  0.41859959    -0.15900
F1718       F  0.32452433  0.88265696  0.36146036    -0.13500
C1719       C  0.06365668  0.88096605  0.32939013     0.24500
C1720       C  0.04005285  0.89755331  0.30703035    -0.23600
C1721       C  0.04928248  0.89989034  0.27144276     0.19400
C1722       C  0.08075563  0.88550610  0.25877930     0.24500
C1723       C  0.10383266  0.86800290  0.28122030    -0.23500
C1724       C  0.09471947  0.86659987  0.31688790     0.19400
F1725       F  0.11578645  0.85075037  0.34024540    -0.13500
F1726       F  0.05597083  0.87701062  0.36357009    -0.15900
F1727       F  0.08819150  0.88810280  0.22443489    -0.15900
F1728       F  0.02787182  0.91626656  0.24880215    -0.13500
C1729       C  0.06291719  0.72758759  0.14119823     0.24500
C1730       C  0.02982347  0.73727209  0.15158176    -0.23600
C1731       C  0.02520158  0.75391271  0.18398982     0.19400
C1732       C  0.05352746  0.76090104  0.20525389     0.24500
C1733       C  0.08645754  0.74925926  0.19545126    -0.23500
C1734       C  0.09050419  0.73150078  0.16357978     0.19400
F1735       F  0.12081106  0.71639669  0.15431607    -0.13500
F1736       F  0.06818076  0.71248889  0.10988039    -0.15900
F1737       F  0.04822964  0.77648035  0.23648549    -0.15900
F1738       F  0.99320609  0.76089544  0.19650370    -0.13500
C1739       C  0.18249447  0.74202792  0.11830796     0.24500
C1740       C  0.16854857  0.77327385  0.13240046    -0.23600
C1741       C  0.13844598  0.78696867  0.11702053     0.19400
C1742       C  0.12225360  0.76919906  0.08925983     0.24500
C1743       C  0.13525237  0.73697610  0.07714697    -0.23500
C1744       C  0.16585211  0.72410430  0.09152224     0.19400
F1745       F  0.18019588  0.69430036  0.07898680    -0.13500
F1746       F  0.21227332  0.72810396  0.13076497    -0.15900
F1747       F  0.09348219  0.78305932  0.07458524    -0.15900
F1748       F  0.12411572  0.81676672  0.12943083    -0.13500
C1749       C  0.25759447  0.88574444  0.09890461     0.24500
C1750       C  0.27621665  0.85543316  0.10679930    -0.23600
C1751       C  0.29857415  0.84075173  0.08217481     0.19400
C1752       C  0.30413184  0.85767890  0.05068090     0.24500
C1753       C  0.28703709  0.88916574  0.04355175    -0.23500
C1754       C  0.26309979  0.90271811  0.06731472     0.19400
F1755       F  0.24617683  0.93292866  0.06040463    -0.13500
F1756       F  0.23431787  0.89880591  0.12178878    -0.15900
F1757       F  0.32728023  0.84425579  0.02774270    -0.15900
F1758       F  0.31604858  0.81086516  0.08932251    -0.13500
C1759       C  0.23040162  0.16414304  0.16810503     0.24500
C1760       C  0.25192864  0.18877830  0.18467144    -0.23600
C1761       C  0.28789440  0.18141885  0.18541056     0.19400
C1762       C  0.30157515  0.15042457  0.17148318     0.24500
C1763       C  0.28011567  0.12514305  0.15602903    -0.23500
C1764       C  0.24424245  0.13278667  0.15412873     0.19400
F1765       F  0.22240490  0.10984950  0.13863719    -0.13500
F1766       F  0.19581573  0.16979971  0.16627572    -0.15900
F1767       F  0.33601804  0.14450071  0.17486406    -0.15900
F1768       F  0.31039818  0.20413804  0.20029619    -0.13500
C1769       C  0.24255246  0.98488548  0.16111630     0.24500
C1770       C  0.27837758  0.99281988  0.16217767    -0.23600
C1771       C  0.30016264  0.96911903  0.17938852     0.19400
C1772       C  0.28713474  0.93863242  0.19457130     0.24500
C1773       C  0.25144577  0.93022426  0.19353701    -0.23500
C1774       C  0.22927547  0.95397864  0.17655253     0.19400
F1775       F  0.19479690  0.94752099  0.17506733    -0.13500
F1776       F  0.22037050  0.00678617  0.14471152    -0.15900
F1777       F  0.31015731  0.91718879  0.21043996    -0.15900
F1778       F  0.33445233  0.97596034  0.18275215    -0.13500
C1779       C  0.14732782  0.15502632  0.27830570     0.24500
C1780       C  0.16874157  0.16807214  0.30464415    -0.23600
C1781       C  0.16549929  0.15555218  0.33863781     0.19400
C1782       C  0.14101224  0.13039298  0.34648852     0.24500
C1783       C  0.11856758  0.11790980  0.32058533    -0.23500
C1784       C  0.12216153  0.13006398  0.28626494     0.19400
F1785       F  0.10136492  0.11774048  0.26064620    -0.13500
F1786       F  0.14974620  0.16763038  0.24544746    -0.15900
F1787       F  0.14031875  0.11717102  0.37920904    -0.15900
F1788       F  0.18608503  0.16798058  0.36440523    -0.13500
C1789       C  0.14463557  0.98841964  0.34666666     0.24500
C1790       C  0.12007608  0.99629233  0.32088316    -0.23600
C1791       C  0.12218238  0.98040575  0.28814183     0.19400
C1792       C  0.14807686  0.95591791  0.28169445     0.24500
C1793       C  0.17190206  0.94771634  0.30788139    -0.23500
C1794       C  0.17011194  0.96394892  0.34027758     0.19400
F1795       F  0.19247646  0.95518077  0.36604586    -0.13500
F1796       F  0.14433940  0.00497150  0.37788168    -0.15900
F1797       F  0.14892441  0.93893173  0.25075444    -0.15900
F1798       F  0.09900907  0.98828539  0.26288091    -0.13500
C1799       C  0.30725595  0.43269211  0.76744486     0.24500
C1800       C  0.27470520  0.42076884  0.77863943    -0.23600
C1801       C  0.25998049  0.43625106  0.80875052     0.19400
C1802       C  0.27796764  0.46089190  0.82807977     0.24500
C1803       C  0.31060368  0.47222645  0.81750087    -0.23500
C1804       C  0.32476897  0.45883134  0.78642024     0.19400
F1805       F  0.35562986  0.47090256  0.77472644    -0.13500
F1806       F  0.32241558  0.41857860  0.73894249    -0.15900
F1807       F  0.26269606  0.47492084  0.85665749    -0.15900
F1808       F  0.22788726  0.42736188  0.82013534    -0.13500
C1809       C  0.17869539  0.47635420  0.70365620     0.24500
C1810       C  0.16687108  0.44460051  0.68955321    -0.23600
C1811       C  0.15473467  0.44433612  0.65501813     0.19400
C1812       C  0.15352294  0.47491172  0.63565469     0.24500
C1813       C  0.16064197  0.50727389  0.65130708    -0.23500
C1814       C  0.17477831  0.50751211  0.68511408     0.19400
F1815       F  0.18245853  0.53788185  0.70149476    -0.13500
F1816       F  0.19193660  0.47781303  0.73627901    -0.15900
F1817       F  0.14316038  0.47302764  0.60199274    -0.15900
F1818       F  0.14230100  0.41481424  0.64012987    -0.13500
C1819       C  0.39202604  0.27858920  0.65688931     0.24500
C1820       C  0.40080774  0.24278637  0.65975799    -0.23600
C1821       C  0.37660863  0.22078712  0.67607187     0.19400
C1822       C  0.34541193  0.23390051  0.68973752     0.24500
C1823       C  0.33663581  0.26981588  0.68763957    -0.23500
C1824       C  0.36035952  0.29183907  0.67036059     0.19400
F1825       F  0.35338851  0.32636199  0.66712104    -0.13500
F1826       F  0.41406945  0.30086375  0.64074857    -0.15900
F1827       F  0.32383009  0.21089180  0.70554264    -0.15900
F1828       F  0.38374707  0.18637447  0.68026778    -0.13500
C1829       C  0.38720896  0.34328567  0.79621076     0.24500
C1830       C  0.35446690  0.35424022  0.80774648    -0.23600
C1831       C  0.35181821  0.38532153  0.82711754     0.19400
C1832       C  0.38061418  0.40564421  0.83330725     0.24500
C1833       C  0.41350007  0.39413324  0.82364081    -0.23500
C1834       C  0.41667878  0.36251435  0.80500668     0.19400
F1835       F  0.44812790  0.34910050  0.79681960    -0.13500
F1836       F  0.39102387  0.31314732  0.77807253    -0.15900
F1837       F  0.37626942  0.43670419  0.84940321    -0.15900
F1838       F  0.32137205  0.39627214  0.84081932    -0.13500
C1839       C  0.28856678  0.18768024  0.81294093     0.24500
C1840       C  0.25185437  0.19044802  0.81237132    -0.23600
C1841       C  0.23282040  0.16600395  0.83171910     0.19400
C1842       C  0.24993225  0.13886060  0.84965298     0.24500
C1843       C  0.28652867  0.13596282  0.84923124    -0.23500
C1844       C  0.30541508  0.16151787  0.83161479     0.19400
F1845       F  0.34042562  0.15948669  0.82968933    -0.13500
F1846       F  0.30886950  0.20956304  0.79414177    -0.15900
F1847       F  0.23063623  0.11442483  0.86626299    -0.15900
F1848       F  0.19774718  0.16703575  0.83160529    -0.13500
C1849       C  0.12912128  0.16209236  0.68172852     0.24500
C1850       C  0.16270046  0.16055055  0.69597019    -0.23600
C1851       C  0.17515269  0.12823160  0.70778786     0.19400
C1852       C  0.15589013  0.09777636  0.70232235     0.24500
C1853       C  0.12285804  0.09932634  0.68662090    -0.23500
C1854       C  0.10894680  0.13225442  0.67877551     0.19400
F1855       F  0.07613682  0.13558114  0.66660295    -0.13500
F1856       F  0.11593327  0.19225918  0.66909468    -0.15900
F1857       F  0.17089850  0.06680746  0.71022054    -0.15900
F1858       F  0.20696788  0.12558861  0.72244296    -0.13500
C1859       C  0.04503580  0.20751704  0.72259819     0.24500
C1860       C  0.03144676  0.21738297  0.68998698    -0.23600
C1861       C  0.04892524  0.24324936  0.67114366     0.19400
C1862       C  0.07932552  0.25852263  0.68392215     0.24500
C1863       C  0.09411034  0.24791338  0.71596303    -0.23500
C1864       C  0.07615243  0.22237735  0.73533382     0.19400
F1865       F  0.08895687  0.21124939  0.76619862    -0.13500
F1866       F  0.02862342  0.18284703  0.74175586    -0.15900
F1867       F  0.09451754  0.28358000  0.66420133    -0.15900
F1868       F  0.03624627  0.25416514  0.64011993    -0.13500
C1869       C  0.05412652  0.38885378  0.78272378     0.24500
C1870       C  0.07395299  0.35899038  0.78847679    -0.23600
C1871       C  0.06827023  0.33811095  0.81784269     0.19400
C1872       C  0.04351140  0.34795457  0.84221564     0.24500
C1873       C  0.02490238  0.37884296  0.83724973    -0.23500
C1874       C  0.02954051  0.39873421  0.80700522     0.19400
F1875       F  0.01045597  0.42791723  0.80131336    -0.13500
F1876       F  0.06023040  0.40953292  0.75474145    -0.15900
F1877       F  0.03838881  0.32817294  0.87099824    -0.15900
F1878       F  0.08794311  0.30938713  0.82365433    -0.13500
C1879       C  0.32132907  0.23309467  0.06907101     0.24500
C1880       C  0.29648640  0.20866756  0.05811637    -0.23600
C1881       C  0.26242490  0.21070601  0.07068892     0.19400
C1882       C  0.25379480  0.23609887  0.09518646     0.24500
C1883       C  0.27917174  0.25951097  0.10672660    -0.23500
C1884       C  0.31275128  0.25806757  0.09347516     0.19400
F1885       F  0.33752999  0.28031562  0.10514612    -0.13500
F1886       F  0.35373087  0.23343142  0.05540808    -0.15900
F1887       F  0.22142690  0.23679445  0.10887902    -0.15900
F1888       F  0.23787513  0.18805681  0.05940088    -0.13500
C1889       C  0.32056880  0.23108967  0.92353834     0.24500
C1890       C  0.29703823  0.20629087  0.93634426    -0.23600
C1891       C  0.26249921  0.20668821  0.92480297     0.19400
C1892       C  0.25191718  0.23113523  0.90016699     0.24500
C1893       C  0.27585312  0.25503278  0.88688376    -0.23500
C1894       C  0.31007179  0.25507259  0.89879747     0.19400
F1895       F  0.33348625  0.27812908  0.88587505    -0.13500
F1896       F  0.35337006  0.23308178  0.93600850    -0.15900
F1897       F  0.21893889  0.23050919  0.88810231    -0.15900
F1898       F  0.23915921  0.18354396  0.93756935    -0.13500
C1899       C  0.17821177  0.36484213  0.10532804     0.24500
C1900       C  0.16521600  0.33448111  0.12190477    -0.23600
C1901       C  0.13748514  0.31695020  0.10549486     0.19400
C1902       C  0.12216604  0.33064944  0.07485113     0.24500
C1903       C  0.13413684  0.36212620  0.05990646    -0.23500
C1904       C  0.16275090  0.37846493  0.07526336     0.19400
F1905       F  0.17612421  0.40783597  0.06083855    -0.13500
F1906       F  0.20614409  0.38189323  0.11829243    -0.15900
F1907       F  0.09484673  0.31379134  0.06045270    -0.15900
F1908       F  0.12392616  0.28775671  0.12004449    -0.13500
C1909       C  0.15269161  0.37147272  0.87123568     0.24500
C1910       C  0.15407677  0.33509469  0.86462346    -0.23600
C1911       C  0.13996379  0.31298545  0.89031170     0.19400
C1912       C  0.12618622  0.32678077  0.92175986     0.24500
C1913       C  0.12599461  0.36323992  0.92865794    -0.23500
C1914       C  0.13918244  0.38512365  0.90239333     0.19400
F1915       F  0.14084544  0.42012599  0.90741087    -0.13500
F1916       F  0.16503405  0.39449131  0.84750524    -0.15900
F1917       F  0.11295681  0.30424897  0.94548106    -0.15900
F1918       F  0.14041348  0.27791063  0.88559137    -0.13500
C1919       C  0.58691199  0.38923443  0.23716849     0.24500
C1920       C  0.60597496  0.36721440  0.21500441    -0.23600
C1921       C  0.59827635  0.36755957  0.17909499     0.19400
C1922       C  0.57160727  0.38804687  0.16602768     0.24500
C1923       C  0.55124091  0.40838706  0.18832329    -0.23500
C1924       C  0.55953242  0.40939683  0.22396492     0.19400
F1925       F  0.54054992  0.42925999  0.24607721    -0.13500
F1926       F  0.59391855  0.39040309  0.27168047    -0.15900
F1927       F  0.56415224  0.38591832  0.13162125    -0.15900
F1928       F  0.61615752  0.34752493  0.15618527    -0.13500
C1929       C  0.36064244  0.39540131  0.18210637     0.24500
C1930       C  0.36076924  0.36044729  0.19326831    -0.23600
C1931       C  0.39269206  0.34446179  0.20069946     0.19400
C1932       C  0.42372125  0.36251899  0.19533637     0.24500
C1933       C  0.42340042  0.39750256  0.18395657    -0.23500
C1934       C  0.39132124  0.41410450  0.17913895     0.19400
F1935       F  0.38956558  0.44833256  0.17016444    -0.13500
F1936       F  0.33092851  0.41141079  0.17261486    -0.15900
F1937       F  0.45390350  0.34485223  0.19903065    -0.15900
F1938       F  0.39413652  0.31054893  0.21074753    -0.13500
C1939       C  0.51326105  0.24704201  0.29821918     0.24500
C1940       C  0.51318055  0.23269046  0.33192098    -0.23600
C1941       C  0.54501700  0.22713765  0.34855505     0.19400
C1942       C  0.57605242  0.23161041  0.33072793     0.24500
C1943       C  0.57642374  0.24514670  0.29676445    -0.23500
C1944       C  0.54458818  0.25394156  0.28113442     0.19400
F1945       F  0.54351354  0.26708223  0.24841643    -0.13500
F1946       F  0.48320449  0.25241402  0.28083112    -0.15900
F1947       F  0.60566107  0.22144503  0.34654393    -0.15900
F1948       F  0.54602532  0.21613210  0.38199468    -0.13500
C1949       C  0.36424009  0.21967115  0.32388557     0.24500
C1950       C  0.38536826  0.23823001  0.34681939    -0.23600
C1951       C  0.37790774  0.27386118  0.35286401     0.19400
C1952       C  0.35071770  0.29077740  0.33498609     0.24500
C1953       C  0.33091091  0.27248624  0.31028755    -0.23500
C1954       C  0.33779935  0.23633357  0.30579770     0.19400
F1955       F  0.31949379  0.21656520  0.28299857    -0.13500
F1956       F  0.37087756  0.18562589  0.31671883    -0.15900
F1957       F  0.34442246  0.32502349  0.34123681    -0.15900
F1958       F  0.39746851  0.29242732  0.37554675    -0.13500
C1959       C  0.27815638  0.47620552  0.17083714     0.24500
C1960       C  0.30533768  0.49272577  0.18846547    -0.23600
C1961       C  0.31578006  0.47868444  0.22074286     0.19400
C1962       C  0.30004937  0.44815516  0.23440494     0.24500
C1963       C  0.27303861  0.43118706  0.21634015    -0.23500
C1964       C  0.26204870  0.44638521  0.18456049     0.19400
F1965       F  0.23561799  0.43224786  0.16611914    -0.13500
F1966       F  0.26666615  0.48936695  0.14021145    -0.15900
F1967       F  0.31194731  0.43475877  0.26472951    -0.15900
F1968       F  0.34186444  0.49406784  0.23865838    -0.13500
C1969       C  0.28645423  0.68139410  0.18426741     0.24500
C1970       C  0.28596287  0.68753546  0.22067610    -0.23600
C1971       C  0.30048220  0.66151532  0.24201319     0.19400
C1972       C  0.31405474  0.63026734  0.22737257     0.24500
C1973       C  0.31348844  0.62409267  0.19092878    -0.23500
C1974       C  0.29950850  0.65047859  0.16990528     0.19400
F1975       F  0.29651669  0.64576827  0.13508416    -0.13500
F1976       F  0.27351060  0.70529302  0.16177394    -0.15900
F1977       F  0.32776012  0.60600744  0.24898830    -0.15900
F1978       F  0.30069401  0.66573672  0.27699452    -0.13500
C1979       C  0.18106057  0.48302733  0.34230358     0.24500
C1980       C  0.14723875  0.49527473  0.34780413    -0.23600
C1981       C  0.12026702  0.48403148  0.32594045     0.19400
C1982       C  0.12654258  0.45948310  0.30045300     0.24500
C1983       C  0.15991620  0.44650931  0.29566620    -0.23500
C1984       C  0.18737506  0.45851697  0.31622378     0.19400
F1985       F  0.21965507  0.44515859  0.31220746    -0.13500
F1986       F  0.20762840  0.49455461  0.36228916    -0.15900
F1987       F  0.09978911  0.44751287  0.28091635    -0.15900
F1988       F  0.08787742  0.49750443  0.32858359    -0.13500
C1989       C  0.17991988  0.63000514  0.34867244     0.24500
C1990       C  0.14583364  0.61722396  0.35043330    -0.23600
C1991       C  0.12098791  0.62923571  0.32663905     0.19400
C1992       C  0.12967711  0.65445826  0.30241477     0.24500
C1993       C  0.16337171  0.66763989  0.30108596    -0.23500
C1994       C  0.18872454  0.65505075  0.32384428     0.19400
F1995       F  0.22141201  0.66797385  0.32287092    -0.13500
F1996       F  0.20449644  0.61809644  0.37086700    -0.15900
F1997       F  0.10511205  0.66625181  0.28011065    -0.15900
F1998       F  0.08862470  0.61547715  0.32578143    -0.13500
C1999       C  0.15152409  0.36700832  0.37357053     0.24500
C2000       C  0.18719754  0.36853279  0.36509504    -0.23600
C2001       C  0.20917609  0.38574325  0.38882592     0.19400
C2002       C  0.19610652  0.39938563  0.42053401     0.24500
C2003       C  0.16058908  0.39656977  0.42930866    -0.23500
C2004       C  0.13861544  0.38061233  0.40488629     0.19400
F2005       F  0.10446711  0.37642226  0.41198727    -0.13500
F2006       F  0.12859010  0.35168015  0.35165363    -0.15900
F2007       F  0.21829635  0.41542673  0.44268199    -0.15900
F2008       F  0.24347382  0.38855037  0.38191249    -0.13500
C2009       C  0.15094435  0.35627040  0.57249729     0.24500
C2010       C  0.16395175  0.38808428  0.56013979    -0.23600
C2011       C  0.19212990  0.40329106  0.57793942     0.19400
C2012       C  0.20586656  0.38765232  0.60837139     0.24500
C2013       C  0.19174603  0.35633357  0.62157162    -0.23500
C2014       C  0.16466197  0.34053706  0.60238820     0.19400
F2015       F  0.15099476  0.30957881  0.61266752    -0.13500
F2016       F  0.12459545  0.34026337  0.55548547    -0.15900
F2017       F  0.23150652  0.40420333  0.62590240    -0.15900
F2018       F  0.20557926  0.43391204  0.56653746    -0.13500
C2019       C  0.27706855  0.21279682  0.39362646     0.24500
C2020       C  0.27128245  0.24758826  0.38410039    -0.23600
C2021       C  0.29034376  0.27436257  0.39983797     0.19400
C2022       C  0.31548893  0.26615317  0.42462037     0.24500
C2023       C  0.32116344  0.23114843  0.43427513    -0.23500
C2024       C  0.30147102  0.20462583  0.41860554     0.19400
F2025       F  0.30440239  0.17080343  0.42866697    -0.13500
F2026       F  0.25881409  0.18651903  0.37862589    -0.15900
F2027       F  0.33412504  0.29225688  0.43939356    -0.15900
F2028       F  0.28559798  0.30808606  0.39021932    -0.13500
C2029       C  0.31424934  0.26353959  0.57120671     0.24500
C2030       C  0.31753994  0.22992058  0.55712187    -0.23600
C2031       C  0.29512740  0.20311131  0.56791082     0.19400
C2032       C  0.27098028  0.20931561  0.59366194     0.24500
C2033       C  0.26832405  0.24246563  0.60836620    -0.23500
C2034       C  0.28960192  0.26981076  0.59696107     0.19400
F2035       F  0.28745980  0.30189424  0.61177667    -0.13500
F2036       F  0.33505275  0.28988466  0.56028646    -0.15900
F2037       F  0.25032117  0.18285195  0.60466347    -0.15900
F2038       F  0.29603188  0.17105909  0.55287071    -0.13500
loop_ 
_geom_bond_atom_site_label_1 
_geom_bond_atom_site_label_2 
_geom_bond_distance 
_geom_bond_site_symmetry_2 
_ccdc_geom_bond_type 
C1            C2   1.392       .  A
C1            C6   1.397       .  A
C1         C2030   1.461       .  S
C2            C3   1.397       .  A
C2            H7   1.085       .  S
C3            C4   1.406       .  A
C3         C2023   1.473       .  S
C4            C5   1.402       .  A
C4            H8   1.083       .  S
C5            C6   1.397       .  A
C5         C1007   1.471       .  S
C6            H9   1.085       .  S
C10          C11   1.414       .  A
C10          C15   1.422       .  A
C10        C2003   1.519       .  S
C11          C12   1.412       .  A
C11          H16   1.084       .  S
C12          C13   1.418       .  A
C12        C2010   1.506       .  S
C13          C14   1.418       .  A
C13          H17   1.083       .  S
C14          C15   1.420       .  A
C14         C905   1.518       .  S
C15          H18   1.083       .  S
C19          C20   1.399       .  A
C19          C24   1.392       .  A
C19        C1980   1.464       .  S
C20          C21   1.398       .  A
C20          H25   1.085       .  S
C21          C22   1.402       .  A
C21         C928   1.472       .  S
C22          C23   1.405       .  A
C22          H26   1.084       .  S
C23          C24   1.395       .  A
C23        C1990   1.467       .  S
C24          H27   1.085       .  S
C28          C29   1.418       .  A
C28          C33   1.409       .  A
C28        C1960   1.508       .  S
C29          C30   1.417       .  A
C29          H34   1.099       .  S
C30          C31   1.425       .  A
C30         C962   1.526       .  S
C31          C32   1.430       .  A
C31          H35   1.069       .  S
C32          C33   1.411       .  A
C32        C1973   1.523       .  S
C33          H36   1.092       .  S
C37          C38   1.404       .  A
C37          C42   1.402       .  A
C37        C1940   1.490       .  S
C38          C39   1.400       .  A
C38          H43   1.083       .  S
C39          C40   1.416       .  A
C39        C1030   1.497       .  S
C40          C41   1.422       .  A
C40          H44   1.083       .  S
C41          C42   1.406       .  A
C41        C1950   1.495       .  S
C42          H45   1.083       .  S
C46          C47   1.402       .  A
C46          C51   1.401       .  A
C46        C1933   1.488       .  S
C47          C48   1.406       .  A
C47          H52   1.083       .  S
C48          C49   1.413       .  A
C48        C1923   1.484       .  S
C49          C50   1.406       .  A
C49          H53   1.084       .  S
C50          C51   1.398       .  A
C50         C950   1.481       .  S
C51          H54   1.082       .  S
C55          C56   1.415       .  A
C55          C60   1.429       .  A
C55        C1913   1.531       .  S
C56          C57   1.412   1_556  A
C56          H61   1.083       .  S
C57          C58   1.420       .  A
C57        C1903   1.509       .  S
C58          C59   1.419   1_554  A
C58          H62   1.083       .  S
C59          C60   1.426       .  A
C59         C618   1.529   1_556  S
C60          H63   1.082       .  S
C64          C65   1.404       .  A
C64          C69   1.393       .  A
C64        C1890   1.466       .  S
C65          C66   1.403       .  A
C65          H70   1.083       .  S
C66          C67   1.399   1_556  A
C66         C651   1.470   1_556  S
C67          C68   1.398       .  A
C67          H71   1.085       .  S
C68          C69   1.390   1_554  A
C68        C1880   1.460       .  S
C69          H72   1.085       .  S
O73         C100   1.264       .  A
O73         Mn99   2.072       .  S
C74        C2033   1.442       .  S
C74         O107   1.264       .  A
C74         O104   1.265       .  A
O75         Mn82   2.193       .  S
O75         Mn93   2.103       .  S
O75         Mn97   2.191       .  S
O75         Mn99   2.120       .  S
O76          C86   1.269       .  A
O76        Mn110   2.074       .  S
O77         C100   1.262       .  A
O77         Mn93   2.050       .  S
O78         C105   1.266       .  A
O78         Mn97   2.194       .  S
O79        Mn110   1.952       .  S
O79         Mn99   1.950       .  S
O79          C95   1.219       .  S
C80        C1840   1.507       .  S
C80          O83   1.268       .  A
C80         O106   1.208       .  S
O81        Mn101   2.100       .  S
O81         Mn82   2.174       .  S
O81        Mn115   2.096       .  S
O81         Mn97   2.179       .  S
Mn82        O111   2.190       .  S
Mn82         O87   2.174       .  S
Mn82        O114   2.171       .  S
Mn82         O88   2.182       .  S
O83         Mn97   2.187       .  S
O84          C86   1.274       .  A
O84         Mn91   2.097       .  S
C85        C1823   1.525       .  S
C85         O111   1.268       .  A
C85          O98   1.216       .  S
C86        C1850   1.483       .  S
O87         C112   1.266       .  A
O88         Mn91   2.105       .  S
O88        Mn110   2.105       .  S
O88         Mn97   2.180       .  S
O89         Mn93   2.005       .  S
O89        Mn115   2.003       .  S
O89         C112   1.233       .  A
C90        C1893   1.446       .  S
C90         O116   1.263       .  A
C90          O92   1.267       .  A
Mn91        O104   2.062       .  S
Mn91        O106   1.943       .  S
Mn91         O98   1.956       .  S
O92        Mn115   2.077       .  S
Mn93        O109   2.089       .  S
Mn93        O103   1.964       .  S
O94          C96   1.269       .  A
O94         Mn99   2.078       .  S
C95        C1863   1.513       .  S
C95         O113   1.268       .  A
C96        C1810   1.485       .  S
C96         O109   1.271       .  A
Mn97        O113   2.168       .  S
O98        Mn101   1.957       .  S
Mn99        O117   1.940       .  S
C100       C1870   1.438       .  S
Mn101       O108   2.080       .  S
Mn101       O116   2.065       .  S
Mn101       O106   1.930       .  S
C102       C1830   1.473       .  S
C102        O108   1.271       .  A
C102        O118   1.268       .  A
O103       Mn115   1.967       .  S
O103        C105   1.215       .  S
C105       C1910   1.526       .  S
O107       Mn110   2.069       .  S
Mn110       O117   1.945       .  S
C112       C1800   1.493       .  S
O114        C119   1.264       .  A
Mn115       O118   2.068       .  S
O117        C119   1.218       .  S
C119       C2013   1.513       .  S
C120        C121   1.392       .  A
C120        C125   1.397       .  A
C120       C1790   1.459   1_545  S
C121        C122   1.395       .  A
C121        H126   1.085       .  S
C122        C123   1.406       .  A
C122       C1783   1.470       .  S
C123        C124   1.401       .  A
C123        H127   1.083       .  S
C124        C125   1.398       .  A
C124        C573   1.471       .  S
C125        H128   1.085   1_545  S
C129        C130   1.420       .  A
C129        C134   1.413       .  A
C129       C1770   1.517   1_545  S
C130        C131   1.415       .  A
C130        H135   1.083   1_545  S
C131        C132   1.422       .  A
C131        C663   1.523       .  S
C132        C133   1.427       .  A
C132        H136   1.083       .  S
C133        C134   1.416       .  A
C133       C1763   1.523       .  S
C134        H137   1.083       .  S
O138        C165   1.263       .  A
O138       Mn164   2.056       .  S
C139       C1993   1.449       .  S
C139        O172   1.266       .  A
C139        O169   1.265       .  A
O140       Mn147   2.190       .  S
O140       Mn158   2.120       .  S
O140       Mn162   2.187       .  S
O140       Mn164   2.106       .  S
O141        C151   1.262       .  A
O141       Mn175   2.051       .  S
O142        C165   1.272       .  A
O142       Mn158   2.101       .  S
O143        C170   1.265       .  A
O143       Mn162   2.182       .  S
O144       Mn175   1.953       .  S
O144       Mn164   1.948       .  S
O144        C160   1.210       .  S
C145       C1723   1.522       .  S
C145        O148   1.265       .  A
C145        O171   1.216       .  S
O146       Mn166   2.106       .  S
O146       Mn147   2.190       .  S
O146       Mn180   2.109       .  S
O146       Mn162   2.190       .  S
Mn147       O176   2.190       .  S
Mn147       O152   2.176       .  S
Mn147       O179   2.204       .  S
Mn147       O153   2.189       .  S
O148       Mn162   2.182       .  S
O149        C151   1.270       .  A
O149       Mn156   2.081       .  S
C150       C1703   1.501       .  S
C150        O176   1.269       .  A
C150        O163   1.231       .  A
C151       C1733   1.467       .  S
O152        C177   1.271       .  A
O153       Mn156   2.101       .  S
O153       Mn175   2.091       .  S
O153       Mn162   2.183       .  S
O154       Mn158   1.962       .  S
O154       Mn180   1.959       .  S
O154        C177   1.223       .  S
C155       C1793   1.439       .  S
C155        O181   1.260       .  A
C155        O157   1.265       .  A
Mn156       O169   2.072       .  S
Mn156       O163   1.999       .  S
Mn156       O171   1.967       .  S
O157       Mn180   2.077       .  S
Mn158       O174   2.058       .  S
Mn158       O168   1.930       .  S
O159        C161   1.263       .  A
O159       Mn164   2.045       .  S
C160       C1740   1.501       .  S
C160        O178   1.267       .  A
C161       C1690   1.429       .  S
C161        O174   1.262       .  A
Mn162       O178   2.178       .  S
O163       Mn166   1.999       .  S
Mn164       O182   2.000       .  S
C165       C1750   1.454       .  S
Mn166       O173   2.089       .  S
Mn166       O181   2.043       .  S
Mn166       O171   1.968       .  S
C167       C1710   1.482       .  S
C167        O173   1.271       .  A
C167        O183   1.271       .  A
O168       Mn180   1.946       .  S
O168        C170   1.214       .  S
C170       C1773   1.515       .  S
O172       Mn175   2.075       .  S
Mn175       O182   2.003       .  S
C177       C1683   1.523       .  S
O179        C184   1.267       .  A
Mn180       O183   2.082       .  S
O182        C184   1.234       .  A
C184       C1970   1.521       .  S
C185        C186   1.400       .  A
C185        C190   1.403       .  A
C185       C1670   1.487       .  S
C186        C187   1.405   1_655  A
C186        H191   1.084       .  S
C187        C188   1.421       .  A
C187       C1660   1.495       .  S
C188        C189   1.415   1_455  A
C188        H192   1.083       .  S
C189        C190   1.402       .  A
C189        C596   1.496       .  S
C190        H193   1.083       .  S
C194        C195   1.399       .  A
C194        C199   1.396       .  A
C194       C1640   1.475   1_655  S
C195        C196   1.400       .  A
C195        H200   1.084   1_655  S
C196        C197   1.408       .  A
C196        C606   1.481       .  S
C197        C198   1.413       .  A
C197        H201   1.084       .  S
C198        C199   1.401       .  A
C198       C1653   1.474       .  S
C199        H202   1.084       .  S
O203        C230   1.269       .  A
O203       Mn229   2.085       .  S
C204       C1943   1.488       .  S
C204        O237   1.277       .  A
C204        O234   1.271       .  A
O205       Mn212   2.175       .  S
O205       Mn223   2.099       .  S
O205       Mn227   2.175       .  S
O205       Mn229   2.092       .  S
O206        C216   1.265       .  A
O206       Mn240   2.072       .  S
O207        C230   1.270       .  A
O207       Mn223   2.094       .  S
O208        C235   1.258       .  A
O208       Mn227   2.147       .  S
O209       Mn240   1.977       .  S
O209       Mn229   1.953       .  S
O209        C225   1.213       .  S
C210       C1630   1.488       .  S
C210        O213   1.256       .  A
C210        O236   1.214       .  S
O211       Mn231   2.096       .  S
O211       Mn212   2.165       .  S
O211       Mn245   2.088       .  S
O211       Mn227   2.164       .  S
Mn212       O241   2.125       .  S
Mn212       O217   2.136       .  S
Mn212       O244   2.131       .  S
Mn212       O218   2.163       .  S
O213       Mn227   2.129       .  S
O214        C216   1.269       .  A
O214       Mn221   2.090       .  S
C215       C1920   1.490       .  S
C215        O241   1.258       .  A
C215        O228   1.217       .  S
C216       C1603   1.454       .  S
O217        C242   1.256       .  A
O218       Mn221   2.105       .  S
O218       Mn240   2.093       .  S
O218       Mn227   2.179       .  S
O219       Mn223   1.936       .  S
O219       Mn245   1.957       .  S
O219        C242   1.212       .  S
C220       C1620   1.465       .  S
C220        O246   1.271       .  A
C220        O222   1.271       .  A
Mn221       O234   2.082       .  S
Mn221       O236   1.940       .  S
Mn221       O228   1.964       .  S
O222       Mn245   2.091       .  S
Mn223       O239   2.091       .  S
Mn223       O233   1.947       .  S
O224        C226   1.268       .  A
O224       Mn229   2.085       .  S
C225       C1610   1.488       .  S
C225        O243   1.256       .  A
C226       C1580   1.465       .  S
C226        O239   1.271       .  A
Mn227       O243   2.133       .  S
O228       Mn231   1.945       .  S
Mn229       O247   2.018       .  S
C230       C1673   1.467       .  S
Mn231       O238   2.087       .  S
Mn231       O246   2.091       .  S
Mn231       O236   1.959       .  S
C232       C1560   1.462       .  S
C232        O238   1.270       .  A
C232        O248   1.270       .  A
O233       Mn245   1.934       .  S
O233        C235   1.209       .  S
C235       C1650   1.489       .  S
O237       Mn240   2.112       .  S
Mn240       O247   2.009       .  S
C242       C1570   1.493       .  S
O244        C249   1.256       .  A
Mn245       O248   2.083       .  S
O247        C249   1.236       .  A
C249       C1590   1.479       .  S
C250        C251   1.398   1_556  A
C250        C255   1.399       .  A
C250       C1553   1.477       .  S
C251        C252   1.404       .  A
C251        H256   1.084       .  S
C252        C253   1.412       .  A
C252       C1633   1.479       .  S
C253        C254   1.405       .  A
C253        H257   1.084       .  S
C254        C255   1.402   1_554  A
C254        C652   1.481       .  S
C255        H258   1.084       .  S
C259        C260   1.401       .  A
C259        C264   1.397   1_554  A
C259       C1623   1.481       .  S
C260        C261   1.404   1_554  A
C260        H265   1.084       .  S
C261        C262   1.418       .  A
C261        C629   1.499       .  S
C262        C263   1.424       .  A
C262        H266   1.083       .  S
C263        C264   1.403       .  A
C263       C1540   1.497       .  S
C264        H267   1.084       .  S
C268        C269   1.416       .  A
C268        C273   1.429       .  A
C268       C1530   1.529       .  S
C269        C270   1.412       .  A
C269        H274   1.083       .  S
C270        C271   1.417       .  A
C270       C1860   1.506   1_655  S
C271        C272   1.414       .  A
C271        H275   1.083   1_655  S
C272        C273   1.424       .  A
C272        C597   1.523       .  S
C273        H276   1.082       .  S
C277        C278   1.396   1_655  A
C277        C282   1.389       .  A
C277       C1873   1.452   1_655  S
C278        C279   1.397   1_455  A
C278        H283   1.085       .  S
C279        C280   1.403       .  A
C279        C641   1.467       .  S
C280        C281   1.404       .  A
C280        H284   1.083       .  S
C281        C282   1.395       .  A
C281       C1520   1.473       .  S
C282        H285   1.085       .  S
O286        C313   1.262       .  A
O286       Mn312   2.053       .  S
C287       C1460   1.445       .  S
C287        O320   1.264       .  A
C287        O317   1.267       .  A
O288       Mn295   2.168       .  S
O288       Mn306   2.086       .  S
O288       Mn310   2.174       .  S
O288       Mn312   2.085       .  S
O289        C299   1.270       .  A
O289       Mn323   2.081       .  S
O290        C313   1.271       .  A
O290       Mn306   2.092       .  S
O291        C318   1.267       .  A
O291       Mn310   2.195       .  S
O292       Mn323   1.944       .  S
O292       Mn312   1.936       .  S
O292        C308   1.211       .  S
C293       C1510   1.517       .  S
C293        O296   1.269       .  A
C293        O319   1.217       .  S
O294       Mn314   2.104       .  S
O294       Mn295   2.182       .  S
O294       Mn328   2.099       .  S
O294       Mn310   2.176       .  S
Mn295       O324   2.169       .  S
Mn295       O300   2.174       .  S
Mn295       O327   2.198       .  S
Mn295       O301   2.177       .  S
O296       Mn310   2.182       .  S
O297        C299   1.273       .  A
O297       Mn304   2.097       .  S
C298       C1470   1.512       .  S
C298        O324   1.265       .  A
C298        O311   1.217       .  S
C299       C1550   1.461       .  S
O300        C325   1.267       .  A
O301       Mn304   2.096       .  S
O301       Mn323   2.095       .  S
O301       Mn310   2.175       .  S
O302       Mn306   1.935       .  S
O302       Mn328   1.944       .  S
O302        C325   1.212       .  S
C303       C1500   1.448       .  S
C303        O329   1.268       .  A
C303        O305   1.266       .  A
Mn304       O317   2.082       .  S
Mn304       O319   1.950       .  S
Mn304       O311   1.956       .  S
O305       Mn328   2.067       .  S
Mn306       O322   2.062       .  S
Mn306       O316   1.951       .  S
O307        C309   1.269       .  A
O307       Mn312   2.081       .  S
C308       C1543   1.501       .  S
C308        O326   1.267       .  A
C309       C1440   1.447       .  S
C309        O322   1.265       .  A
Mn310       O326   2.173       .  S
O311       Mn314   1.947       .  S
Mn312       O330   1.944       .  S
C313       C1523   1.455       .  S
Mn314       O321   2.089       .  S
Mn314       O329   2.081       .  S
Mn314       O319   1.960       .  S
C315       C1483   1.461       .  S
C315        O321   1.272       .  A
C315        O331   1.268       .  A
O316       Mn328   1.948       .  S
O316        C318   1.213       .  S
C318       C1533   1.524       .  S
O320       Mn323   2.053       .  S
Mn323       O330   1.941       .  S
C325       C1490   1.503       .  S
O327        C332   1.267       .  A
Mn328       O331   2.077       .  S
O330        C332   1.212       .  S
C332       C1450   1.525       .  S
C333        C334   1.394   1_556  A
C333        C338   1.399       .  A
C333       C1430   1.472       .  S
C334        C335   1.398       .  A
C334        H339   1.085       .  S
C335        C336   1.424       .  A
C335       C1743   1.488       .  S
C336        C337   1.418       .  A
C336        H340   1.081       .  S
C337        C338   1.404   1_554  A
C337        C617   1.499       .  S
C338        H341   1.084       .  S
C342        C343   1.394   1_554  A
C342        C347   1.395       .  A
C342       C1753   1.461       .  S
C343        C344   1.402       .  A
C343        H348   1.084       .  S
C344        C345   1.410       .  A
C344       C1420   1.474       .  S
C345        C346   1.406       .  A
C345        H349   1.084       .  S
C346        C347   1.399   1_556  A
C346        C686   1.475       .  S
C347        H350   1.084       .  S
C351        C352   1.402       .  A
C351        C356   1.412       .  A
C351       C1410   1.479   1_545  S
C352        C353   1.401       .  A
C352        H357   1.082       .  S
C353        C354   1.406       .  A
C353       C1853   1.491       .  S
C354        C355   1.400       .  A
C354        H358   1.082       .  S
C355        C356   1.406       .  A
C355        C572   1.484       .  S
C356        H359   1.084   1_545  S
C360        C361   1.396       .  A
C360        C365   1.397       .  A
C360       C1403   1.478       .  S
C361        C362   1.402       .  A
C361        H366   1.084       .  S
C362        C363   1.428       .  A
C362       C1843   1.500       .  S
C363        C364   1.422       .  A
C363        H367   1.082       .  S
C364        C365   1.398       .  A
C364        C674   1.499       .  S
C365        H368   1.084       .  S
O369        C396   1.268       .  A
O369       Mn395   2.080       .  S
C370       C1433   1.456       .  S
C370        O403   1.269       .  A
C370        O400   1.270       .  A
O371       Mn378   2.167       .  S
O371       Mn389   2.094       .  S
O371       Mn393   2.168       .  S
O371       Mn395   2.093       .  S
O372        C382   1.271       .  A
O372       Mn406   2.083       .  S
O373        C396   1.271       .  A
O373       Mn389   2.095       .  S
O374        C401   1.255       .  A
O374       Mn393   2.120       .  S
O375       Mn406   1.940       .  S
O375       Mn395   1.950       .  S
O375        C391   1.213       .  S
C376       C1320   1.491       .  S
C376        O379   1.256       .  A
C376        O402   1.214       .  S
O377       Mn397   2.090       .  S
O377       Mn378   2.167       .  S
O377       Mn411   2.095       .  S
O377       Mn393   2.164       .  S
Mn378       O407   2.137       .  S
Mn378       O383   2.131       .  S
Mn378       O410   2.126       .  S
Mn378       O384   2.168       .  S
O379       Mn393   2.133       .  S
O380        C382   1.270       .  A
O380       Mn387   2.078       .  S
C381       C1383   1.487       .  S
C381        O407   1.255       .  A
C381        O394   1.210       .  S
C382       C1330   1.477       .  S
O383        C408   1.256       .  A
O384       Mn387   2.094       .  S
O384       Mn406   2.095       .  S
O384       Mn393   2.164       .  S
O385       Mn389   1.957       .  S
O385       Mn411   1.935       .  S
O385        C408   1.213       .  S
C386       C1373   1.462       .  S
C386        O412   1.271       .  A
C386        O388   1.270       .  A
Mn387       O400   2.086       .  S
Mn387       O402   1.962       .  S
Mn387       O394   1.932       .  S
O388       Mn411   2.081       .  S
Mn389       O405   2.078       .  S
Mn389       O399   1.939       .  S
O390        C392   1.270       .  A
O390       Mn395   2.083       .  S
C391       C1340   1.490       .  S
C391        O409   1.256       .  A
C392       C1400   1.458       .  S
C392        O405   1.269       .  A
Mn393       O409   2.135       .  S
O394       Mn397   1.948       .  S
Mn395       O413   1.939       .  S
C396       C1350   1.463       .  S
Mn397       O404   2.083       .  S
Mn397       O412   2.087       .  S
Mn397       O402   1.942       .  S
C398       C1390   1.464       .  S
C398        O404   1.269       .  A
C398        O414   1.272       .  A
O399       Mn411   1.961       .  S
O399        C401   1.214       .  S
C401       C1360   1.484       .  S
O403       Mn406   2.081       .  S
Mn406       O413   1.956       .  S
C408       C1413   1.490       .  S
O410        C415   1.256       .  A
Mn411       O414   2.093       .  S
O413        C415   1.214       .  S
C415       C1423   1.486       .  S
C416        C417   1.399       .  A
C416        C421   1.421       .  A
C416       C1310   1.501       .  S
C417        C418   1.393   1_655  A
C417        H422   1.075       .  S
C418        C419   1.403   1_455  A
C418       C1730   1.469       .  S
C419        C420   1.389       .  A
C419        H423   1.083   1_655  S
C420        C421   1.401       .  A
C420        C607   1.477       .  S
C421        H424   1.076       .  S
C425        C426   1.414       .  A
C425        C430   1.423       .  A
C425       C1300   1.515       .  S
C426        C427   1.415   1_655  A
C426        H431   1.083       .  S
C427        C428   1.424       .  A
C427       C1720   1.522       .  S
C428        C429   1.421   1_455  A
C428        H432   1.083       .  S
C429        C430   1.419       .  A
C429        C561   1.526       .  S
C430        H433   1.083       .  S
C434        C435   1.400       .  A
C434        C439   1.396       .  A
C434       C1290   1.479       .  S
C435        C436   1.399       .  A
C435        H440   1.083       .  S
C436        C437   1.408       .  A
C436        C584   1.482       .  S
C437        C438   1.415       .  A
C437        H441   1.084       .  S
C438        C439   1.402       .  A
C438       C1613   1.481       .  S
C439        H442   1.083       .  S
C443        C444   1.426       .  A
C443        C448   1.402       .  A
C443       C1280   1.493   1_545  S
C444        C445   1.418       .  A
C444        H449   1.083   1_545  S
C445        C446   1.400       .  A
C445        C662   1.496       .  S
C446        C447   1.396       .  A
C446        H450   1.084       .  S
C447        C448   1.394       .  A
C447       C1600   1.471       .  S
C448        H451   1.084       .  S
O452        C479   1.266       .  A
O452       Mn478   2.068       .  S
C453       C1313   1.472       .  S
C453        O486   1.257       .  A
C453        O483   1.270       .  A
O454       Mn461   2.182       .  S
O454       Mn472   2.099       .  S
O454       Mn476   2.184       .  S
O454       Mn478   2.099       .  S
O455        C465   1.270       .  A
O455       Mn489   2.080       .  S
O456        C479   1.269       .  A
O456       Mn472   2.082       .  S
O457        C484   1.266       .  A
O457       Mn476   2.197       .  S
O458       Mn489   1.997       .  S
O458       Mn478   1.992       .  S
O458        C474   1.233       .  A
C459       C1250   1.516       .  S
C459        O462   1.269       .  A
C459        O485   1.225       .  S
O460       Mn480   2.122       .  S
O460       Mn461   2.186       .  S
O460       Mn494   2.108       .  S
O460       Mn476   2.185       .  S
Mn461       O490   2.184       .  S
Mn461       O466   2.184       .  S
Mn461       O493   2.179       .  S
Mn461       O467   2.188       .  S
O462       Mn476   2.161       .  S
O463        C465   1.272       .  A
O463       Mn470   2.095       .  S
C464       C1303   1.522       .  S
C464        O490   1.267       .  A
C464        O477   1.217       .  S
C465       C1200   1.481       .  S
O466        C491   1.268       .  A
O467       Mn470   2.106       .  S
O467       Mn489   2.106       .  S
O467       Mn476   2.180       .  S
O468       Mn472   2.006       .  S
O468       Mn494   2.005       .  S
O468        C491   1.233       .  A
C469       C1243   1.437       .  S
C469        O495   1.267       .  A
C469        O471   1.261       .  A
Mn470       O483   2.097       .  S
Mn470       O485   1.972       .  S
Mn470       O477   1.947       .  S
O471       Mn494   2.042       .  S
Mn472       O488   2.072       .  S
Mn472       O482   1.962       .  S
O473        C475   1.266       .  A
O473       Mn478   2.070       .  S
C474       C1213   1.497       .  S
C474        O492   1.267       .  A
C475       C1263   1.443       .  S
C475        O488   1.267       .  A
Mn476       O492   2.185       .  S
O477       Mn480   1.942       .  S
Mn478       O496   1.969       .  S
C479       C1220   1.472       .  S
Mn480       O487   2.088       .  S
Mn480       O495   2.078       .  S
Mn480       O485   1.971       .  S
C481       C1293   1.480       .  S
C481        O487   1.271       .  A
C481        O497   1.269       .  A
O482       Mn494   1.962       .  S
O482        C484   1.213       .  S
C484       C1230   1.528       .  S
O486       Mn489   2.044       .  S
Mn489       O496   1.985       .  S
C491       C1283   1.500       .  S
O493        C498   1.267       .  A
Mn494       O497   2.079       .  S
O496        C498   1.219       .  S
C498       C1270   1.526       .  S
C499        C500   1.395       .  A
C499        C504   1.403       .  A
C499       C1260   1.466       .  S
C500        C501   1.394   1_554  A
C500        H505   1.082       .  S
C501        C502   1.408       .  A
C501       C1190   1.480       .  S
C502        C503   1.396   1_556  A
C502        H506   1.082       .  S
C503        C504   1.399       .  A
C503        C687   1.471       .  S
C504        H507   1.084       .  S
C508        C509   1.420       .  A
C508        C513   1.410   1_556  A
C508       C1183   1.503       .  S
C509        C510   1.419       .  A
C509        H514   1.083       .  S
C510        C511   1.422   1_556  A
C510        C628   1.524       .  S
C511        C512   1.424       .  A
C511        H515   1.081       .  S
C512        C513   1.409       .  A
C512       C1273   1.516       .  S
C513        H516   1.084       .  S
C517        C518   1.400       .  A
C517        C522   1.392       .  A
C517       C1503   1.464       .  S
C518        C519   1.399       .  A
C518        H523   1.084       .  S
C519        C520   1.401       .  A
C519        C583   1.470       .  S
C520        C521   1.403       .  A
C520        H524   1.083   1_545  S
C521        C522   1.396       .  A
C521       C1170   1.467   1_545  S
C522        H525   1.085       .  S
C526        C527   1.418       .  A
C526        C531   1.412       .  A
C526       C1513   1.512       .  S
C527        C528   1.417       .  A
C527        H532   1.083       .  S
C528        C529   1.422       .  A
C528        C673   1.523       .  S
C529        C530   1.426       .  A
C529        H533   1.082   1_545  S
C530        C531   1.413       .  A
C530       C1160   1.515   1_545  S
C531        H534   1.084       .  S
C535        C536   1.400       .  A
C535        C540   1.401       .  A
C535       C1393   1.485   1_655  S
C536        C537   1.405       .  A
C536        H541   1.084       .  S
C537        C538   1.424       .  A
C537       C1150   1.498       .  S
C538        C539   1.417       .  A
C538        H542   1.082       .  S
C539        C540   1.400       .  A
C539        C562   1.498       .  S
C540        H543   1.083   1_655  S
C544        C545   1.401       .  A
C544        C549   1.399       .  A
C544       C1140   1.483       .  S
C545        C546   1.400       .  A
C545        H550   1.083       .  S
C546        C547   1.407   1_655  A
C546        C642   1.484       .  S
C547        C548   1.415       .  A
C547        H551   1.084       .  S
C548        C549   1.403   1_455  A
C548       C1380   1.480       .  S
C549        H552   1.084       .  S
N553        N554   1.332       .  A
N553        N559   1.315       .  A
N553       Mn582   2.256   1_565  S
N554        C561   1.365       .  A
N555        N557   1.314       .  A
N555        N556   1.321       .  A
N555       Mn571   2.215   1_665  S
N556        C562   1.358       .  A
N557        N558   1.328       .  A
N557       Mn582   2.217   1_565  S
N558        C562   1.355       .  A
N559        N560   1.330       .  A
N559       Mn571   2.250   1_665  S
N560        C561   1.361       .  A
N563        N569   1.318       .  A
N563        N564   1.317       .  A
N563       Mn593   2.204       .  S
N564        C572   1.353       .  A
N565        N566   1.318       .  A
N565        N567   1.319       .  A
N565       Mn571   2.188       .  S
N566        C573   1.348       .  A
N567        N568   1.321       .  A
N567       Mn593   2.206       .  S
N568        C573   1.350       .  A
N569        N570   1.325       .  A
N569       Mn571   2.220       .  S
N570        C572   1.355       .  A
Mn571      Cl595   2.548   1_455  S
N574        N575   1.319       .  A
N574        N580   1.319       .  A
N574       Mn582   2.202       .  S
N575        C583   1.349       .  A
N576        N578   1.318       .  A
N576        N577   1.326       .  A
N576       Mn594   2.218       .  S
N577        C584   1.355       .  A
N578        N579   1.316       .  A
N578       Mn582   2.198       .  S
N579        C584   1.352       .  A
N580        N581   1.319       .  A
N580       Mn594   2.189       .  S
N581        C583   1.349       .  A
Mn582      Cl595   2.551       .  S
N585        N586   1.328   1_655  A
N585        N591   1.314       .  A
N585       Mn593   2.219   1_655  S
N586        C596   1.356   1_455  A
N587        N588   1.329       .  A
N587        N589   1.315       .  A
N587       Mn594   2.243       .  S
N588        C597   1.360       .  A
N589        N590   1.332   1_655  A
N589       Mn593   2.259   1_655  S
N590        C597   1.365   1_455  A
N591        N592   1.321       .  A
N591       Mn594   2.211       .  S
N592        C596   1.356       .  A
Mn593      Cl595   2.551   1_455  S
Mn594      Cl595   2.550       .  S
N598        N599   1.325       .  A
N598        N604   1.318       .  A
N598       Mn627   2.215       .  S
N599        C606   1.354       .  A
N600        N602   1.319       .  A
N600        N601   1.322       .  A
N600       Mn616   2.224   1_655  S
N601        C607   1.355       .  A
N602        N603   1.318       .  A
N602       Mn627   2.188       .  S
N603        C607   1.349       .  A
N604        N605   1.317       .  A
N604       Mn616   2.204   1_655  S
N605        C606   1.353       .  A
N608        N614   1.314   1_556  A
N608        N609   1.319       .  A
N608       Mn638   2.210       .  S
N609        C617   1.355   1_556  A
N610        N611   1.334       .  A
N610        N612   1.316   1_554  A
N610       Mn616   2.272       .  S
N611        C618   1.367       .  A
N612        N613   1.330       .  A
N612       Mn638   2.247       .  S
N613        C618   1.360   1_556  A
N614        N615   1.330       .  A
N614       Mn616   2.230       .  S
N615        C617   1.359       .  A
Mn616      Cl640   2.555   1_454  S
N619        N620   1.329       .  A
N619        N625   1.315   1_554  A
N619       Mn627   2.247       .  S
N620        C628   1.361   1_554  A
N621        N623   1.313   1_556  A
N621        N622   1.330       .  A
N621       Mn639   2.224       .  S
N622        C629   1.358       .  A
N623        N624   1.320       .  A
N623       Mn627   2.210       .  S
N624        C629   1.356   1_554  A
N625        N626   1.332       .  A
N625       Mn639   2.256       .  S
N626        C628   1.364       .  A
Mn627      Cl640   2.553   1_554  S
N630        N631   1.319   1_655  A
N630        N636   1.318       .  A
N630       Mn638   2.188   1_655  S
N631        C641   1.350   1_455  A
N632        N633   1.316       .  A
N632        N634   1.319       .  A
N632       Mn639   2.202       .  S
N633        C642   1.352       .  A
N634        N635   1.327   1_655  A
N634       Mn638   2.225   1_655  S
N635        C642   1.356   1_455  A
N636        N637   1.318       .  A
N636       Mn639   2.196       .  S
N637        C641   1.349       .  A
Mn638      Cl640   2.554   1_455  S
Mn639      Cl640   2.555       .  S
N643        N644   1.320       .  A
N643        N649   1.317   1_556  A
N643       Mn672   2.195       .  S
N644        C651   1.349   1_556  A
N645        N647   1.318   1_554  A
N645        N646   1.326       .  A
N645       Mn661   2.228       .  S
N646        C652   1.357       .  A
N647        N648   1.316       .  A
N647       Mn672   2.188       .  S
N648        C652   1.350   1_556  A
N649        N650   1.318       .  A
N649       Mn661   2.189       .  S
N650        C651   1.350       .  A
N653        N659   1.313       .  A
N653        N654   1.330       .  A
N653       Mn683   2.218       .  S
N654        C662   1.357       .  A
N655        N656   1.331       .  A
N655        N657   1.315       .  A
N655       Mn661   2.249       .  S
N656        C663   1.361       .  A
N657        N658   1.330       .  A
N657       Mn683   2.252       .  S
N658        C663   1.363       .  A
N659        N660   1.318       .  A
N659       Mn661   2.208       .  S
N660        C662   1.355       .  A
Mn661      Cl685   2.547       .  S
N664        N665   1.328       .  A
N664        N670   1.314       .  A
N664       Mn672   2.243       .  S
N665        C673   1.361       .  A
N666        N668   1.314       .  A
N666        N667   1.321       .  A
N666       Mn684   2.227       .  S
N667        C674   1.359       .  A
N668        N669   1.329       .  A
N668       Mn672   2.206       .  S
N669        C674   1.354       .  A
N670        N671   1.332       .  A
N670       Mn684   2.254       .  S
N671        C673   1.364       .  A
Mn672      Cl685   2.553   1_556  S
N675        N676   1.317       .  A
N675        N681   1.318   1_554  A
N675       Mn683   2.192   1_565  S
N676        C686   1.351   1_554  A
N677        N678   1.319       .  A
N677        N679   1.319   1_556  A
N677       Mn684   2.204   1_565  S
N678        C687   1.352   1_556  A
N679        N680   1.319       .  A
N679       Mn683   2.198   1_565  S
N680        C687   1.348       .  A
N681        N682   1.323       .  A
N681       Mn684   2.215   1_565  S
N682        C686   1.353       .  A
Mn683      Cl685   2.553       .  S
Mn684      Cl685   2.546   1_556  S
O688        C715   1.265       .  A
O688       Mn714   2.072       .  S
C689       C1193   1.476       .  S
C689        O722   1.270       .  A
C689        O719   1.263       .  A
O690       Mn697   2.176       .  S
O690       Mn708   2.111       .  S
O690       Mn712   2.187       .  S
O690       Mn714   2.110       .  S
O691        C701   1.272       .  A
O691       Mn725   2.088       .  S
O692        C715   1.263       .  A
O692       Mn708   2.053       .  S
O693        C720   1.265       .  A
O693       Mn712   2.188       .  S
O694       Mn725   1.957       .  S
O694       Mn714   1.956       .  S
O694        C710   1.219       .  S
C695       C1100   1.504       .  S
C695        O698   1.268       .  A
C695        O721   1.207       .  S
O696       Mn716   2.083       .  S
O696       Mn697   2.172       .  S
O696       Mn730   2.094       .  S
O696       Mn712   2.173       .  S
Mn697       O726   2.191       .  S
Mn697       O702   2.169       .  S
Mn697       O729   2.169       .  S
Mn697       O703   2.185       .  S
O698       Mn712   2.188       .  S
O699        C701   1.272       .  A
O699       Mn706   2.087       .  S
C700       C1163   1.524       .  S
C700        O726   1.265       .  A
C700        O713   1.212       .  S
C701       C1110   1.481       .  S
O702        C727   1.268       .  A
O703       Mn706   2.099       .  S
O703       Mn725   2.105       .  S
O703       Mn712   2.182       .  S
O704       Mn708   1.954       .  S
O704       Mn730   1.946       .  S
O704        C727   1.214       .  S
C705       C1130   1.456       .  S
C705        O731   1.264       .  A
C705        O707   1.270       .  A
Mn706       O719   2.053       .  S
Mn706       O721   1.938       .  S
Mn706       O713   1.949       .  S
O707       Mn730   2.094       .  S
Mn708       O724   2.088       .  S
Mn708       O718   1.947       .  S
O709        C711   1.272       .  A
O709       Mn714   2.088       .  S
C710       C1080   1.513       .  S
C710        O728   1.267       .  A
C711       C1143   1.482       .  S
C711        O724   1.272       .  A
Mn712       O728   2.166       .  S
O713       Mn716   1.943       .  S
Mn714       O732   1.950       .  S
C715       C1090   1.438       .  S
Mn716       O723   2.080       .  S
Mn716       O731   2.062       .  S
Mn716       O721   1.929       .  S
C717       C1173   1.449       .  S
C717        O723   1.269       .  A
C717        O733   1.265       .  A
O718       Mn730   1.947       .  S
O718        C720   1.214       .  S
C720       C1120   1.523       .  S
O722       Mn725   2.091       .  S
Mn725       O732   1.956       .  S
C727       C1153   1.503       .  S
O729        C734   1.265       .  A
Mn730       O733   2.067       .  S
O732        C734   1.217       .  S
C734       C1180   1.512       .  S
C735        C736   1.403       .  A
C735        C740   1.411       .  A
C735       C1363   1.476       .  S
C736        C737   1.398       .  A
C736        H741   1.083       .  S
C737        C738   1.400       .  A
C737       C1713   1.483       .  S
C738        C739   1.398       .  A
C738        H742   1.083       .  S
C739        C740   1.404       .  A
C739       C1006   1.477       .  S
C740        H743   1.084       .  S
C744        C745   1.401       .  A
C744        C749   1.397       .  A
C744       C1370   1.485       .  S
C745        C746   1.402       .  A
C745        H750   1.083       .  S
C746        C747   1.414       .  A
C746        C940   1.492       .  S
C747        C748   1.419       .  A
C747        H751   1.083       .  S
C748        C749   1.400       .  A
C748       C1700   1.486       .  S
C749        H752   1.083       .  S
C753        C754   1.401       .  A
C753        C758   1.401       .  A
C753       C1583   1.488       .  S
C754        C755   1.406       .  A
C754        H759   1.083       .  S
C755        C756   1.424       .  A
C755       C1493   1.497       .  S
C756        C757   1.415       .  A
C756        H760   1.083       .  S
C757        C758   1.402       .  A
C757        C906   1.499       .  S
C758        H761   1.083       .  S
C762        C763   1.396       .  A
C762        C767   1.397       .  A
C762       C1480   1.479       .  S
C763        C764   1.400       .  A
C763        H768   1.084       .  S
C764        C765   1.411       .  A
C764       C1593   1.467       .  S
C765        C766   1.406       .  A
C765        H769   1.081       .  S
C766        C767   1.400       .  A
C766       C1018   1.481       .  S
C767        H770   1.084       .  S
C771        C772   1.390       .  A
C771        C776   1.397       .  A
C771       C1240   1.458       .  S
C772        C773   1.394       .  A
C772        H777   1.085       .  S
C773        C774   1.408       .  A
C773       C1133   1.474       .  S
C774        C775   1.405       .  A
C774        H778   1.084       .  S
C775        C776   1.399       .  A
C775       C1017   1.473       .  S
C776        H779   1.085       .  S
C780        C781   1.425       .  A
C780        C785   1.414       .  A
C780       C1123   1.520       .  S
C781        C782   1.422       .  A
C781        H786   1.083       .  S
C782        C783   1.417       .  A
C782        C941   1.521       .  S
C783        C784   1.418       .  A
C783        H787   1.083       .  S
C784        C785   1.412       .  A
C784       C1253   1.507       .  S
C785        H788   1.084       .  S
C789        C790   1.407       .  A
C789        C794   1.396       .  A
C789       C1833   1.478       .  S
C790        C791   1.394       .  A
C790        H795   1.083       .  S
C791        C792   1.400       .  A
C791        C951   1.468       .  S
C792        C793   1.402       .  A
C792        H796   1.084       .  S
C793        C794   1.395       .  A
C793       C1463   1.464       .  S
C794        H797   1.082       .  S
C798        C799   1.416       .  A
C798        C803   1.416       .  A
C798       C1473   1.513       .  S
C799        C800   1.410       .  A
C799        H804   1.083       .  S
C800        C801   1.422       .  A
C800        C995   1.517       .  S
C801        C802   1.425       .  A
C801        H805   1.083       .  S
C802        C803   1.417       .  A
C802       C1820   1.524       .  S
C803        H806   1.083       .  S
C807        C808   1.419       .  A
C807        C812   1.416       .  A
C807       C1680   1.516       .  S
C808        C809   1.416       .  A
C808        H813   1.083       .  S
C809        C810   1.423       .  A
C809       C1031   1.524       .  S
C810        C811   1.427       .  A
C810        H814   1.083       .  S
C811        C812   1.418       .  A
C811       C1233   1.525       .  S
C812        H815   1.083       .  S
C816        C817   1.409       .  A
C816        C821   1.389       .  A
C816       C1223   1.473       .  S
C817        C818   1.399       .  A
C817        H822   1.082       .  S
C818        C819   1.399       .  A
C818        C985   1.468       .  S
C819        C820   1.397       .  A
C819        H823   1.085       .  S
C820        C821   1.389       .  A
C820       C1693   1.447       .  S
C821        H824   1.077       .  S
C825        C826   1.402       .  A
C825        C830   1.416       .  A
C825       C1573   1.483       .  S
C826        C827   1.401       .  A
C826        H831   1.083       .  S
C827        C828   1.402       .  A
C827       C1203   1.488       .  S
C828        C829   1.401       .  A
C828        H832   1.082       .  S
C829        C830   1.409       .  A
C829        C927   1.488       .  S
C830        H833   1.084       .  S
C834        C835   1.398       .  A
C834        C839   1.426       .  A
C834       C1210   1.485       .  S
C835        C836   1.395       .  A
C835        H840   1.084       .  S
C836        C837   1.400       .  A
C836       C1563   1.483       .  S
C837        C838   1.405       .  A
C837        H841   1.083       .  S
C838        C839   1.416       .  A
C838        C973   1.502       .  S
C839        H842   1.081       .  S
C843        C844   1.398       .  A
C843        C848   1.404       .  A
C843       C1113   1.483       .  S
C844        C845   1.399       .  A
C844        H849   1.084       .  S
C845        C846   1.416       .  A
C845       C1343   1.477       .  S
C846        C847   1.409       .  A
C846        H850   1.081       .  S
C847        C848   1.401       .  A
C847        C986   1.490       .  S
C848        H851   1.082       .  S
C852        C853   1.397       .  A
C852        C857   1.399       .  A
C852       C1353   1.483       .  S
C853        C854   1.399       .  A
C853        H858   1.083       .  S
C854        C855   1.416       .  A
C854        C996   1.494       .  S
C855        C856   1.424       .  A
C855        H859   1.083       .  S
C856        C857   1.405       .  A
C856       C1103   1.495       .  S
C857        H860   1.083       .  S
C861        C862   1.390       .  A
C861        C866   1.395       .  A
C861       C1093   1.456       .  S
C862        C863   1.395       .  A
C862        H867   1.085       .  S
C863        C864   1.401       .  A
C863       C1443   1.464       .  S
C864        C865   1.398       .  A
C864        H868   1.084       .  S
C865        C866   1.397       .  A
C865        C916   1.461       .  S
C866        H869   1.085       .  S
C870        C871   1.411       .  A
C870        C875   1.416       .  A
C870       C1083   1.504       .  S
C871        C872   1.413       .  A
C871        H876   1.084       .  S
C872        C873   1.427       .  A
C872       C1453   1.522       .  S
C873        C874   1.426       .  A
C873        H877   1.083       .  S
C874        C875   1.414       .  A
C874        C972   1.522       .  S
C875        H878   1.083       .  S
C879        C880   1.421       .  A
C879        C884   1.395       .  A
C879       C1803   1.478       .  S
C880        C881   1.413       .  A
C880        H885   1.080       .  S
C881        C882   1.402       .  A
C881        C961   1.495       .  S
C882        C883   1.403       .  A
C882        H886   1.083       .  S
C883        C884   1.393       .  A
C883       C1333   1.479       .  S
C884        H887   1.084       .  S
C888        C889   1.413       .  A
C888        C893   1.404       .  A
C888       C1323   1.479       .  S
C889        C890   1.408       .  A
C889        H894   1.083       .  S
C890        C891   1.399       .  A
C890        C917   1.487       .  S
C891        C892   1.405       .  A
C891        H895   1.082       .  S
C892        C893   1.403       .  A
C892       C1813   1.491       .  S
C893        H896   1.083       .  S
N897        N898   1.328       .  A
N897        N903   1.315       .  A
N897       Mn926   2.242   1_455  S
N898        C905   1.360       .  A
N899        N901   1.315       .  A
N899        N900   1.331       .  A
N899       Mn915   2.233       .  S
N900        C906   1.358       .  A
N901        N902   1.319       .  A
N901       Mn926   2.206       .  S
N902        C906   1.354       .  A
N903        N904   1.331       .  A
N903       Mn915   2.248   1_455  S
N904        C905   1.363       .  A
N907        N913   1.317       .  A
N907        N908   1.315       .  A
N907       Mn937   2.171       .  S
N908        C916   1.345       .  A
N909        N910   1.319       .  A
N909        N911   1.319       .  A
N909       Mn915   2.216   1_455  S
N910        C917   1.355       .  A
N911        N912   1.325       .  A
N911       Mn937   2.218   1_455  S
N912        C917   1.354       .  A
N913        N914   1.319       .  A
N913       Mn915   2.195       .  S
N914        C916   1.350       .  A
Mn915      Cl939   2.551       .  S
N918        N919   1.327       .  A
N918        N924   1.317       .  A
N918       Mn926   2.224       .  S
N919        C927   1.356       .  A
N920        N922   1.319       .  A
N920        N921   1.320       .  A
N920       Mn938   2.200   1_455  S
N921        C928   1.349       .  A
N922        N923   1.319       .  A
N922       Mn926   2.193   1_455  S
N923        C928   1.350       .  A
N924        N925   1.317       .  A
N924       Mn938   2.202       .  S
N925        C927   1.353       .  A
Mn926      Cl939   2.548       .  S
N929        N930   1.318       .  A
N929        N935   1.313       .  A
N929       Mn937   2.199   1_455  S
N930        C940   1.354       .  A
N931        N932   1.331       .  A
N931        N933   1.315       .  A
N931       Mn938   2.250       .  S
N932        C941   1.363       .  A
N933        N934   1.330       .  A
N933       Mn937   2.248       .  S
N934        C941   1.361       .  A
N935        N936   1.328       .  A
N935       Mn938   2.218   1_455  S
N936        C940   1.356       .  A
Mn937      Cl939   2.549       .  S
Mn938      Cl939   2.552       .  S
N942        N943   1.325       .  A
N942        N948   1.317       .  A
N942       Mn971   2.211   1_554  S
N943        C950   1.354       .  A
N944        N946   1.318       .  A
N944        N945   1.320       .  A
N944       Mn960   2.212   1_556  S
N945        C951   1.353       .  A
N946        N947   1.317       .  A
N946       Mn971   2.177       .  S
N947        C951   1.347       .  A
N948        N949   1.317       .  A
N948       Mn960   2.201       .  S
N949        C950   1.353       .  A
N952        N958   1.313       .  A
N952        N953   1.318       .  A
N952       Mn982   2.207       .  S
N953        C961   1.355       .  A
N954        N955   1.330       .  A
N954        N956   1.316       .  A
N954       Mn960   2.253       .  S
N955        C962   1.363       .  A
N956        N957   1.332       .  A
N956       Mn982   2.260   1_554  S
N957        C962   1.363       .  A
N958        N959   1.329       .  A
N958       Mn960   2.222   1_556  S
N959        C961   1.358       .  A
Mn960      Cl984   2.556   1_554  S
N963        N964   1.329       .  A
N963        N969   1.315       .  A
N963       Mn971   2.231       .  S
N964        C972   1.358       .  A
N965        N967   1.314       .  A
N965        N966   1.334       .  A
N965       Mn983   2.244   1_554  S
N966        C973   1.363       .  A
N967        N968   1.316       .  A
N967       Mn971   2.195   1_554  S
N968        C973   1.352       .  A
N969        N970   1.332       .  A
N969       Mn983   2.266       .  S
N970        C972   1.366       .  A
Mn971      Cl984   2.553       .  S
N974        N975   1.316       .  A
N974        N980   1.318       .  A
N974       Mn982   2.179   1_554  S
N975        C985   1.347       .  A
N976        N977   1.318       .  A
N976        N978   1.320       .  A
N976       Mn983   2.218       .  S
N977        C986   1.354       .  A
N978        N979   1.327       .  A
N978       Mn982   2.232       .  S
N979        C986   1.357       .  A
N980        N981   1.321       .  A
N980       Mn983   2.209   1_554  S
N981        C985   1.353       .  A
Mn982      Cl984   2.552       .  S
Mn983      Cl984   2.556       .  S
N987        N988   1.331       .  A
N987        N993   1.314       .  A
N987      Mn1016   2.258       .  S
N988        C995   1.365       .  A
N989        N991   1.313       .  A
N989        N990   1.317   1_545  A
N989      Mn1005   2.207       .  S
N990        C996   1.355       .  A
N991        N992   1.329   1_545  A
N991      Mn1016   2.212       .  S
N992        C996   1.356       .  A
N993        N994   1.328       .  A
N993      Mn1005   2.226       .  S
N994        C995   1.357       .  A
N997       N1003   1.317       .  A
N997        N998   1.315   1_545  A
N997      Mn1027   2.194       .  S
N998       C1006   1.351       .  A
N999       N1000   1.318       .  A
N999       N1001   1.319       .  A
N999      Mn1005   2.187       .  S
N1000      C1007   1.349       .  A
N1001      N1002   1.321       .  A
N1001     Mn1027   2.204       .  S
N1002      C1007   1.350       .  A
N1003      N1004   1.324   1_545  A
N1003     Mn1005   2.205       .  S
N1004      C1006   1.353       .  A
Mn1005    Cl1029   2.549       .  S
N1008      N1009   1.321   1_545  A
N1008      N1014   1.319       .  A
N1008     Mn1016   2.204       .  S
N1009      C1017   1.350       .  A
N1010      N1012   1.318       .  A
N1010      N1011   1.327       .  A
N1010     Mn1028   2.223       .  S
N1011      C1018   1.357       .  A
N1012      N1013   1.314       .  A
N1012     Mn1016   2.193       .  S
N1013      C1018   1.350       .  A
N1014      N1015   1.319   1_545  A
N1014     Mn1028   2.194       .  S
N1015      C1017   1.349       .  A
Mn1016    Cl1029   2.548       .  S
N1019      N1020   1.328       .  A
N1019      N1025   1.313       .  A
N1019     Mn1027   2.212       .  S
N1020      C1030   1.355       .  A
N1021      N1022   1.330   1_545  A
N1021      N1023   1.315       .  A
N1021     Mn1028   2.247       .  S
N1022      C1031   1.361       .  A
N1023      N1024   1.331   1_545  A
N1023     Mn1027   2.256       .  S
N1024      C1031   1.364       .  A
N1025      N1026   1.321       .  A
N1025     Mn1028   2.219       .  S
N1026      C1030   1.358       .  A
Mn1027    Cl1029   2.548       .  S
Mn1028    Cl1029   2.550       .  S
O1032      C1059   1.263       .  A
O1032     Mn1058   2.051       .  S
C1033      C1780   1.453       .  S
C1033      O1066   1.266       .  A
C1033      O1063   1.269       .  A
O1034     Mn1041   2.176       .  S
O1034     Mn1052   2.104       .  S
O1034     Mn1056   2.184       .  S
O1034     Mn1058   2.112       .  S
O1035      C1045   1.270       .  A
O1035     Mn1069   2.089       .  S
O1036      C1059   1.266       .  A
O1036     Mn1052   2.077       .  S
O1037      C1064   1.267       .  A
O1037     Mn1056   2.176       .  S
O1038     Mn1069   1.950       .  S
O1038     Mn1058   1.946       .  S
O1038      C1054   1.215       .  S
C1039      C1953   1.504       .  S
C1039      O1042   1.266       .  A
C1039      O1065   1.210       .  S
O1040     Mn1060   2.101       .  S
O1040     Mn1041   2.185       .  S
O1040     Mn1074   2.107       .  S
O1040     Mn1056   2.178       .  S
Mn1041     O1070   2.186       .  S
Mn1041     O1046   2.176       .  S
Mn1041     O1073   2.174       .  S
Mn1041     O1047   2.175       .  S
O1042     Mn1056   2.178       .  S
O1043      C1045   1.265       .  A
O1043     Mn1050   2.065       .  S
C1044      C1760   1.521       .  S
C1044      O1070   1.265       .  A
C1044      O1057   1.214       .  S
C1045      C2020   1.456       .  S
O1046      C1071   1.267       .  A
O1047     Mn1050   2.090       .  S
O1047     Mn1069   2.093       .  S
O1047     Mn1056   2.177       .  S
O1048     Mn1052   1.956       .  S
O1048     Mn1074   1.956       .  S
O1048      C1071   1.218       .  S
C1049      C1930   1.483       .  S
C1049      O1075   1.272       .  A
C1049      O1051   1.273       .  A
Mn1050     O1063   2.084       .  S
Mn1050     O1065   1.932       .  S
Mn1050     O1057   1.948       .  S
O1051     Mn1074   2.094       .  S
Mn1052     O1068   2.088       .  S
Mn1052     O1062   1.957       .  S
O1053      C1055   1.272       .  A
O1053     Mn1058   2.085       .  S
C1054      C2000   1.519       .  S
C1054      O1072   1.264       .  A
C1055      C1643   1.476       .  S
C1055      O1068   1.272       .  A
Mn1056     O1072   2.180       .  S
O1057     Mn1060   1.946       .  S
Mn1058     O1076   1.952       .  S
C1059      C1983   1.442       .  S
Mn1060     O1067   2.049       .  S
Mn1060     O1075   2.084       .  S
Mn1060     O1065   1.943       .  S
C1061      C1883   1.440       .  S
C1061      O1067   1.263       .  A
C1061      O1077   1.266       .  A
O1062     Mn1074   1.947       .  S
O1062      C1064   1.217       .  S
C1064      C1963   1.517       .  S
O1066     Mn1069   2.073       .  S
Mn1069     O1076   1.942       .  S
C1071      C1900   1.517       .  S
O1073      C1078   1.268       .  A
Mn1074     O1077   2.077       .  S
O1076      C1078   1.212       .  S
C1078      C1663   1.504       .  S
C1079      C1080   1.420       .  A
C1079      C1084   1.403       .  A
C1079      F1086   1.358       .  S
C1080      C1081   1.413       .  A
C1081      C1082   1.418       .  A
C1081      F1088   1.357       .  S
C1082      C1083   1.412       .  A
C1082      F1087   1.357       .  S
C1083      C1084   1.403       .  A
C1084      F1085   1.358       .  S
C1089      C1090   1.396       .  A
C1089      C1094   1.385       .  A
C1089      F1096   1.359       .  S
C1090      C1091   1.402       .  A
C1091      C1092   1.393       .  A
C1091      F1098   1.358       .  S
C1092      C1093   1.401       .  A
C1092      F1097   1.358       .  S
C1093      C1094   1.406       .  A
C1094      F1095   1.359       .  S
C1099      C1100   1.405       .  A
C1099      C1104   1.414       .  A
C1099      F1106   1.357       .  S
C1100      C1101   1.424       .  A
C1101      C1102   1.392       .  A
C1101      F1108   1.357       .  S
C1102      C1103   1.396       .  A
C1102      F1107   1.359       .  S
C1103      C1104   1.417       .  A
C1104      F1105   1.357       .  S
C1109      C1110   1.409       .  A
C1109      C1114   1.390       .  A
C1109      F1116   1.352       .  S
C1110      C1111   1.406       .  A
C1111      C1112   1.399       .  A
C1111      F1118   1.358       .  S
C1112      C1113   1.413       .  A
C1112      F1117   1.358       .  S
C1113      C1114   1.403       .  A
C1114      F1115   1.359       .  S
C1119      C1120   1.414       .  A
C1119      C1124   1.423       .  A
C1119      F1126   1.357       .  S
C1120      C1121   1.420       .  A
C1121      C1122   1.405       .  A
C1121      F1128   1.358       .  S
C1122      C1123   1.405       .  A
C1122      F1127   1.358       .  S
C1123      C1124   1.419       .  A
C1124      F1125   1.357       .  S
C1129      C1130   1.401       .  A
C1129      C1134   1.401       .  A
C1129      F1136   1.358       .  S
C1130      C1131   1.402       .  A
C1131      C1132   1.383       .  A
C1131      F1138   1.359       .  S
C1132      C1133   1.405       .  A
C1132      F1137   1.358       .  S
C1133      C1134   1.412       .  A
C1134      F1135   1.358       .  S
C1139      C1140   1.404       .  A
C1139      C1144   1.390       .  A
C1139      F1146   1.359       .  S
C1140      C1141   1.410       .  A
C1141      C1142   1.400       .  A
C1141      F1148   1.358       .  S
C1142      C1143   1.409       .  A
C1142      F1147   1.358       .  S
C1143      C1144   1.409       .  A
C1144      F1145   1.354       .  S
C1149      C1150   1.417       .  A
C1149      C1154   1.413       .  A
C1149      F1156   1.357       .  S
C1150      C1151   1.399       .  A
C1151      C1152   1.396       .  A
C1151      F1158   1.358       .  S
C1152      C1153   1.420       .  A
C1152      F1157   1.358       .  S
C1153      C1154   1.407       .  A
C1154      F1155   1.357       .  S
C1159      C1160   1.416       .  A
C1159      C1164   1.423       .  A
C1159      F1166   1.357       .  S
C1160      C1161   1.403       .  A
C1161      C1162   1.407       .  A
C1161      F1168   1.358       .  S
C1162      C1163   1.423       .  A
C1162      F1167   1.357       .  S
C1163      C1164   1.413       .  A
C1164      F1165   1.357       .  S
C1169      C1170   1.407       .  A
C1169      C1174   1.383       .  A
C1169      F1176   1.359       .  S
C1170      C1171   1.408       .  A
C1171      C1172   1.397       .  A
C1171      F1178   1.358       .  S
C1172      C1173   1.401       .  A
C1172      F1177   1.358       .  S
C1173      C1174   1.400       .  A
C1174      F1175   1.359       .  S
C1179      C1180   1.414       .  A
C1179      C1184   1.420       .  A
C1179      F1186   1.357       .  S
C1180      C1181   1.418       .  A
C1181      C1182   1.402       .  A
C1181      F1188   1.358       .  S
C1182      C1183   1.402       .  A
C1182      F1187   1.358       .  S
C1183      C1184   1.413       .  A
C1184      F1185   1.357       .  S
C1189      C1190   1.417       .  A
C1189      C1194   1.397       .  A
C1189      F1196   1.357       .  S
C1190      C1191   1.398       .  A
C1191      C1192   1.382       .  A
C1191      F1198   1.358       .  S
C1192      C1193   1.412       .  A
C1192      F1197   1.353       .  S
C1193      C1194   1.404       .  A
C1194      F1195   1.358       .  S
C1199      C1200   1.406       .  A
C1199      C1204   1.398       .  A
C1199      F1206   1.358       .  S
C1200      C1201   1.408       .  A
C1201      C1202   1.393       .  A
C1201      F1208   1.354       .  S
C1202      C1203   1.407       .  A
C1202      F1207   1.359       .  S
C1203      C1204   1.412       .  A
C1204      F1205   1.357       .  S
C1209      C1210   1.415       .  A
C1209      C1214   1.416       .  A
C1209      F1216   1.357       .  S
C1210      C1211   1.395       .  A
C1211      C1212   1.392       .  A
C1211      F1218   1.359       .  S
C1212      C1213   1.421       .  A
C1212      F1217   1.359       .  S
C1213      C1214   1.407       .  A
C1214      F1215   1.357       .  S
C1219      C1220   1.409       .  A
C1219      C1224   1.380       .  A
C1219      F1226   1.355       .  S
C1220      C1221   1.405       .  A
C1221      C1222   1.399       .  A
C1221      F1228   1.358       .  S
C1222      C1223   1.414       .  A
C1222      F1227   1.358       .  S
C1223      C1224   1.389       .  A
C1224      F1225   1.350       .  S
C1229      C1230   1.421       .  A
C1229      C1234   1.409       .  A
C1229      F1236   1.358       .  S
C1230      C1231   1.413       .  A
C1231      C1232   1.425       .  A
C1231      F1238   1.357       .  S
C1232      C1233   1.419       .  A
C1232      F1237   1.357       .  S
C1233      C1234   1.407       .  A
C1234      F1235   1.358       .  S
C1239      C1240   1.402       .  A
C1239      C1244   1.393       .  A
C1239      F1246   1.358       .  S
C1240      C1241   1.406       .  A
C1241      C1242   1.384       .  A
C1241      F1248   1.359       .  S
C1242      C1243   1.396       .  A
C1242      F1247   1.359       .  S
C1243      C1244   1.402       .  A
C1244      F1245   1.358       .  S
C1249      C1250   1.418       .  A
C1249      C1254   1.406       .  A
C1249      F1256   1.358       .  S
C1250      C1251   1.414       .  A
C1251      C1252   1.419       .  A
C1251      F1258   1.357       .  S
C1252      C1253   1.413       .  A
C1252      F1257   1.357       .  S
C1253      C1254   1.404       .  A
C1254      F1255   1.358       .  S
C1259      C1260   1.408       .  A
C1259      C1264   1.383       .  A
C1259      F1266   1.359       .  S
C1260      C1261   1.407       .  A
C1261      C1262   1.396       .  A
C1261      F1268   1.358       .  S
C1262      C1263   1.400       .  A
C1262      F1267   1.358       .  S
C1263      C1264   1.396       .  A
C1264      F1265   1.359       .  S
C1269      C1270   1.421       .  A
C1269      C1274   1.409       .  A
C1269      F1276   1.357       .  S
C1270      C1271   1.415       .  A
C1271      C1272   1.422       .  A
C1271      F1278   1.357       .  S
C1272      C1273   1.416       .  A
C1272      F1277   1.357       .  S
C1273      C1274   1.404       .  A
C1274      F1275   1.358       .  S
C1279      C1280   1.418       .  A
C1279      C1284   1.413       .  A
C1279      F1286   1.357       .  S
C1280      C1281   1.396       .  A
C1281      C1282   1.390       .  A
C1281      F1288   1.359       .  S
C1282      C1283   1.425       .  A
C1282      F1287   1.359       .  S
C1283      C1284   1.404       .  A
C1284      F1285   1.357       .  S
C1289      C1290   1.410       .  A
C1289      C1294   1.399   1_545  A
C1289      F1296   1.358       .  S
C1290      C1291   1.402   1_545  A
C1291      C1292   1.388       .  A
C1291      F1298   1.359       .  S
C1292      C1293   1.407       .  A
C1292      F1297   1.350       .  S
C1293      C1294   1.408       .  A
C1294      F1295   1.358       .  S
C1299      C1300   1.403       .  A
C1299      C1304   1.405       .  A
C1299      F1306   1.358       .  S
C1300      C1301   1.417       .  A
C1301      C1302   1.424       .  A
C1301      F1308   1.357       .  S
C1302      C1303   1.415       .  A
C1302      F1307   1.357       .  S
C1303      C1304   1.421       .  A
C1304      F1305   1.357       .  S
C1309      C1310   1.423       .  A
C1309      C1314   1.394       .  A
C1309      F1316   1.352       .  S
C1310      C1311   1.400       .  A
C1311      C1312   1.384       .  A
C1311      F1318   1.353       .  S
C1312      C1313   1.411       .  A
C1312      F1317   1.357       .  S
C1313      C1314   1.399       .  A
C1314      F1315   1.358       .  S
C1319      C1320   1.414       .  A
C1319      C1324   1.391       .  A
C1319      F1326   1.358       .  S
C1320      C1321   1.411       .  A
C1321      C1322   1.409       .  A
C1321      F1328   1.357       .  S
C1322      C1323   1.408       .  A
C1322      F1327   1.357       .  S
C1323      C1324   1.399       .  A
C1324      F1325   1.359       .  S
C1329      C1330   1.408       .  A
C1329      C1334   1.398       .  A
C1329      F1336   1.358       .  S
C1330      C1331   1.408       .  A
C1331      C1332   1.387       .  A
C1331      F1338   1.353       .  S
C1332      C1333   1.399       .  A
C1332      F1337   1.355       .  S
C1333      C1334   1.411       .  A
C1334      F1335   1.358       .  S
C1339      C1340   1.414       .  A
C1339      C1344   1.391       .  A
C1339      F1346   1.358       .  S
C1340      C1341   1.411       .  A
C1341      C1342   1.410       .  A
C1341      F1348   1.357       .  S
C1342      C1343   1.409       .  A
C1342      F1347   1.357       .  S
C1343      C1344   1.398       .  A
C1344      F1345   1.359       .  S
C1349      C1350   1.400       .  A
C1349      C1354   1.388       .  A
C1349      F1356   1.358       .  S
C1350      C1351   1.404       .  A
C1351      C1352   1.401       .  A
C1351      F1358   1.358       .  S
C1352      C1353   1.409       .  A
C1352      F1357   1.357       .  S
C1353      C1354   1.410       .  A
C1354      F1355   1.359       .  S
C1359      C1360   1.415       .  A
C1359      C1364   1.388       .  A
C1359      F1366   1.359       .  S
C1360      C1361   1.408       .  A
C1361      C1362   1.404       .  A
C1361      F1368   1.357       .  S
C1362      C1363   1.408       .  A
C1362      F1367   1.357       .  S
C1363      C1364   1.400       .  A
C1364      F1365   1.359       .  S
C1369      C1370   1.413       .  A
C1369      C1374   1.400       .  A
C1369      F1376   1.357       .  S
C1370      C1371   1.409       .  A
C1371      C1372   1.388       .  A
C1371      F1378   1.358       .  S
C1372      C1373   1.401       .  A
C1372      F1377   1.358       .  S
C1373      C1374   1.402       .  A
C1374      F1375   1.358       .  S
C1379      C1380   1.411       .  A
C1379      C1384   1.407       .  A
C1379      F1386   1.357       .  S
C1380      C1381   1.399       .  A
C1381      C1382   1.388       .  A
C1381      F1388   1.359       .  S
C1382      C1383   1.416       .  A
C1382      F1387   1.358       .  S
C1383      C1384   1.407       .  A
C1384      F1385   1.357       .  S
C1389      C1390   1.404       .  A
C1389      C1394   1.404       .  A
C1389      F1396   1.358       .  S
C1390      C1391   1.400       .  A
C1391      C1392   1.387       .  A
C1391      F1398   1.358       .  S
C1392      C1393   1.409       .  A
C1392      F1397   1.358       .  S
C1393      C1394   1.411       .  A
C1394      F1395   1.357       .  S
C1399      C1400   1.402       .  A
C1399      C1404   1.399       .  A
C1399      F1406   1.358       .  S
C1400      C1401   1.400       .  A
C1401      C1402   1.386       .  A
C1401      F1408   1.358       .  S
C1402      C1403   1.409   1_565  A
C1402      F1407   1.359   1_565  S
C1403      C1404   1.409   1_545  A
C1404      F1405   1.357   1_565  S
C1409      C1410   1.399       .  A
C1409      C1414   1.389       .  A
C1409      F1416   1.359       .  S
C1410      C1411   1.408       .  A
C1411      C1412   1.408       .  A
C1411      F1418   1.357       .  S
C1412      C1413   1.410       .  A
C1412      F1417   1.357       .  S
C1413      C1414   1.415       .  A
C1414      F1415   1.358       .  S
C1419      C1420   1.408       .  A
C1419      C1424   1.405       .  A
C1419      F1426   1.357       .  S
C1420      C1421   1.398       .  A
C1421      C1422   1.388       .  A
C1421      F1428   1.359       .  S
C1422      C1423   1.415       .  A
C1422      F1427   1.358       .  S
C1423      C1424   1.408       .  A
C1424      F1425   1.357       .  S
C1429      C1430   1.405       .  A
C1429      C1434   1.389       .  A
C1429      F1436   1.358       .  S
C1430      C1431   1.407       .  A
C1431      C1432   1.401       .  A
C1431      F1438   1.357       .  S
C1432      C1433   1.402       .  A
C1432      F1437   1.358       .  S
C1433      C1434   1.399       .  A
C1434      F1435   1.359       .  S
C1439      C1440   1.400       .  A
C1439      C1444   1.380       .  A
C1439      F1446   1.359       .  S
C1440      C1441   1.400       .  A
C1441      C1442   1.396       .  A
C1441      F1448   1.357       .  S
C1442      C1443   1.407       .  A
C1442      F1447   1.358       .  S
C1443      C1444   1.406       .  A
C1444      F1445   1.359       .  S
C1449      C1450   1.412       .  A
C1449      C1454   1.423       .  A
C1449      F1456   1.357       .  S
C1450      C1451   1.422       .  A
C1451      C1452   1.407       .  A
C1451      F1458   1.358       .  S
C1452      C1453   1.405       .  A
C1452      F1457   1.358       .  S
C1453      C1454   1.420       .  A
C1454      F1455   1.357       .  S
C1459      C1460   1.394       .  A
C1459      C1464   1.377       .  A
C1459      F1466   1.358       .  S
C1460      C1461   1.404       .  A
C1461      C1462   1.400       .  A
C1461      F1468   1.358       .  S
C1462      C1463   1.407       .  A
C1462      F1467   1.358       .  S
C1463      C1464   1.408       .  A
C1464      F1465   1.359       .  S
C1469      C1470   1.417       .  A
C1469      C1474   1.402       .  A
C1469      F1476   1.358       .  S
C1470      C1471   1.412       .  A
C1471      C1472   1.419       .  A
C1471      F1478   1.357       .  S
C1472      C1473   1.415       .  A
C1472      F1477   1.357       .  S
C1473      C1474   1.407       .  A
C1474      F1475   1.358       .  S
C1479      C1480   1.411       .  A
C1479      C1484   1.386       .  A
C1479      F1486   1.359       .  S
C1480      C1481   1.408       .  A
C1481      C1482   1.400       .  A
C1481      F1488   1.358       .  S
C1482      C1483   1.405       .  A
C1482      F1487   1.358       .  S
C1483      C1484   1.399       .  A
C1484      F1485   1.359       .  S
C1489      C1490   1.421       .  A
C1489      C1494   1.394       .  A
C1489      F1496   1.358       .  S
C1490      C1491   1.407       .  A
C1491      C1492   1.413       .  A
C1491      F1498   1.357       .  S
C1492      C1493   1.416       .  A
C1492      F1497   1.357       .  S
C1493      C1494   1.399       .  A
C1494      F1495   1.358       .  S
C1499      C1500   1.403       .  A
C1499      C1504   1.398       .  A
C1499      F1506   1.358       .  S
C1500      C1501   1.398       .  A
C1501      C1502   1.385       .  A
C1501      F1508   1.359       .  S
C1502      C1503   1.406       .  A
C1502      F1507   1.359       .  S
C1503      C1504   1.405       .  A
C1504      F1505   1.358       .  S
C1509      C1510   1.413       .  A
C1509      C1514   1.421       .  A
C1509      F1516   1.357       .  S
C1510      C1511   1.420       .  A
C1511      C1512   1.402       .  A
C1511      F1518   1.358       .  S
C1512      C1513   1.404       .  A
C1512      F1517   1.358       .  S
C1513      C1514   1.416       .  A
C1514      F1515   1.357       .  S
C1519      C1520   1.411       .  A
C1519      C1524   1.397       .  A
C1519      F1526   1.358       .  S
C1520      C1521   1.406       .  A
C1521      C1522   1.383       .  A
C1521      F1528   1.358       .  S
C1522      C1523   1.405       .  A
C1522      F1527   1.360       .  S
C1523      C1524   1.400       .  A
C1524      F1525   1.358       .  S
C1529      C1530   1.422       .  A
C1529      C1534   1.424       .  A
C1529      F1536   1.357       .  S
C1530      C1531   1.409       .  A
C1531      C1532   1.407       .  A
C1531      F1538   1.357       .  S
C1532      C1533   1.419       .  A
C1532      F1537   1.358       .  S
C1533      C1534   1.411       .  A
C1534      F1535   1.357       .  S
C1539      C1540   1.399       .  A
C1539      C1544   1.395       .  A
C1539      F1546   1.358       .  S
C1540      C1541   1.417       .  A
C1541      C1542   1.412       .  A
C1541      F1548   1.357       .  S
C1542      C1543   1.405       .  A
C1542      F1547   1.357       .  S
C1543      C1544   1.421       .  A
C1544      F1545   1.358       .  S
C1549      C1550   1.404       .  A
C1549      C1554   1.402       .  A
C1549      F1556   1.358       .  S
C1550      C1551   1.400       .  A
C1551      C1552   1.390       .  A
C1551      F1558   1.358       .  S
C1552      C1553   1.407       .  A
C1552      F1557   1.358       .  S
C1553      C1554   1.407       .  A
C1554      F1555   1.357       .  S
C1559      C1560   1.399       .  A
C1559      C1564   1.386       .  A
C1559      F1566   1.357       .  S
C1560      C1561   1.403       .  A
C1561      C1562   1.401       .  A
C1561      F1568   1.358       .  S
C1562      C1563   1.411       .  A
C1562      F1567   1.357       .  S
C1563      C1564   1.410       .  A
C1564      F1565   1.358       .  S
C1569      C1570   1.409       .  A
C1569      C1574   1.409       .  A
C1569      F1576   1.357       .  S
C1570      C1571   1.416       .  A
C1571      C1572   1.391       .  A
C1571      F1578   1.358       .  S
C1572      C1573   1.399       .  A
C1572      F1577   1.359       .  S
C1573      C1574   1.410       .  A
C1574      F1575   1.357       .  S
C1579      C1580   1.405       .  A
C1579      C1584   1.405       .  A
C1579      F1586   1.358       .  S
C1580      C1581   1.398       .  A
C1581      C1582   1.388       .  A
C1581      F1588   1.357       .  S
C1582      C1583   1.410       .  A
C1582      F1587   1.358       .  S
C1583      C1584   1.412       .  A
C1584      F1585   1.358       .  S
C1589      C1590   1.417       .  A
C1589      C1594   1.386       .  A
C1589      F1596   1.359       .  S
C1590      C1591   1.406       .  A
C1591      C1592   1.406       .  A
C1591      F1598   1.357       .  S
C1592      C1593   1.407       .  A
C1592      F1597   1.357       .  S
C1593      C1594   1.395       .  A
C1594      F1595   1.359       .  S
C1599      C1600   1.407       .  A
C1599      C1604   1.400       .  A
C1599      F1606   1.358       .  S
C1600      C1601   1.406       .  A
C1601      C1602   1.387       .  A
C1601      F1608   1.359       .  S
C1602      C1603   1.399       .  A
C1602      F1607   1.359       .  S
C1603      C1604   1.403       .  A
C1604      F1605   1.358       .  S
C1609      C1610   1.415       .  A
C1609      C1614   1.389       .  A
C1609      F1616   1.358       .  S
C1610      C1611   1.407       .  A
C1611      C1612   1.406       .  A
C1611      F1618   1.357       .  S
C1612      C1613   1.412       .  A
C1612      F1617   1.358       .  S
C1613      C1614   1.400       .  A
C1614      F1615   1.359       .  S
C1619      C1620   1.401       .  A
C1619      C1624   1.390       .  A
C1619      F1626   1.357       .  S
C1620      C1621   1.403       .  A
C1621      C1622   1.403       .  A
C1621      F1628   1.358       .  S
C1622      C1623   1.410       .  A
C1622      F1627   1.358       .  S
C1623      C1624   1.406       .  A
C1624      F1625   1.358       .  S
C1629      C1630   1.408       .  A
C1629      C1634   1.406       .  A
C1629      F1636   1.357       .  S
C1630      C1631   1.415       .  A
C1631      C1632   1.389       .  A
C1631      F1638   1.358       .  S
C1632      C1633   1.400       .  A
C1632      F1637   1.359       .  S
C1633      C1634   1.409       .  A
C1634      F1635   1.358       .  S
C1639      C1640   1.409       .  A
C1639      C1644   1.401       .  A
C1639      F1646   1.358   1_455  S
C1640      C1641   1.400       .  A
C1641      C1642   1.388       .  A
C1641      F1648   1.359       .  S
C1642      C1643   1.406       .  A
C1642      F1647   1.350       .  S
C1643      C1644   1.407       .  A
C1644      F1645   1.358       .  S
C1649      C1650   1.418       .  A
C1649      C1654   1.387       .  A
C1649      F1656   1.358       .  S
C1650      C1651   1.408       .  A
C1651      C1652   1.408       .  A
C1651      F1658   1.357       .  S
C1652      C1653   1.409       .  A
C1652      F1657   1.357       .  S
C1653      C1654   1.396       .  A
C1654      F1655   1.359       .  S
C1659      C1660   1.416       .  A
C1659      C1664   1.413       .  A
C1659      F1666   1.357       .  S
C1660      C1661   1.398       .  A
C1661      C1662   1.394       .  A
C1661      F1668   1.358       .  S
C1662      C1663   1.421       .  A
C1662      F1667   1.358       .  S
C1663      C1664   1.407       .  A
C1664      F1665   1.357       .  S
C1669      C1670   1.408       .  A
C1669      C1674   1.389       .  A
C1669      F1676   1.358       .  S
C1670      C1671   1.412       .  A
C1671      C1672   1.405       .  A
C1671      F1678   1.357       .  S
C1672      C1673   1.403       .  A
C1672      F1677   1.358       .  S
C1673      C1674   1.401       .  A
C1674      F1675   1.357       .  S
C1679      C1680   1.415       .  A
C1679      C1684   1.422       .  A
C1679      F1686   1.357       .  S
C1680      C1681   1.405       .  A
C1681      C1682   1.406       .  A
C1681      F1688   1.358       .  S
C1682      C1683   1.421       .  A
C1682      F1687   1.357       .  S
C1683      C1684   1.415       .  A
C1684      F1685   1.357       .  S
C1689      C1690   1.391       .  A
C1689      C1694   1.381       .  A
C1689      F1696   1.359       .  S
C1690      C1691   1.402       .  A
C1691      C1692   1.390       .  A
C1691      F1698   1.357       .  S
C1692      C1693   1.398       .  A
C1692      F1697   1.357       .  S
C1693      C1694   1.409       .  A
C1694      F1695   1.359       .  S
C1699      C1700   1.393       .  A
C1699      C1704   1.390       .  A
C1699      F1706   1.359       .  S
C1700      C1701   1.415       .  A
C1701      C1702   1.412       .  A
C1701      F1708   1.357       .  S
C1702      C1703   1.404       .  A
C1702      F1707   1.356       .  S
C1703      C1704   1.427       .  A
C1704      F1705   1.359       .  S
C1709      C1710   1.407       .  A
C1709      C1714   1.401       .  A
C1709      F1716   1.358       .  S
C1710      C1711   1.408       .  A
C1711      C1712   1.387       .  A
C1711      F1718   1.351       .  S
C1712      C1713   1.403       .  A
C1712      F1717   1.359       .  S
C1713      C1714   1.412       .  A
C1714      F1715   1.357       .  S
C1719      C1720   1.407       .  A
C1719      C1724   1.406       .  A
C1719      F1726   1.358       .  S
C1720      C1721   1.419       .  A
C1721      C1722   1.422       .  A
C1721      F1728   1.357       .  S
C1722      C1723   1.413       .  A
C1722      F1727   1.357       .  S
C1723      C1724   1.419       .  A
C1724      F1725   1.358       .  S
C1729      C1730   1.391       .  A
C1729      C1734   1.380       .  A
C1729      F1736   1.353       .  S
C1730      C1731   1.413       .  A
C1731      C1732   1.394       .  A
C1731      F1738   1.354   1_455  S
C1732      C1733   1.401       .  A
C1732      F1737   1.358       .  S
C1733      C1734   1.412       .  A
C1734      F1735   1.355       .  S
C1739      C1740   1.421       .  A
C1739      C1744   1.396       .  A
C1739      F1746   1.357       .  S
C1740      C1741   1.408       .  A
C1741      C1742   1.414       .  A
C1741      F1748   1.357       .  S
C1742      C1743   1.413       .  A
C1742      F1747   1.357       .  S
C1743      C1744   1.397       .  A
C1744      F1745   1.359       .  S
C1749      C1750   1.401       .  A
C1749      C1754   1.396       .  A
C1749      F1756   1.355       .  S
C1750      C1751   1.401       .  A
C1751      C1752   1.392       .  A
C1751      F1758   1.359       .  S
C1752      C1753   1.404       .  A
C1752      F1757   1.358       .  S
C1753      C1754   1.401       .  A
C1754      F1755   1.357       .  S
C1759      C1760   1.411       .  A
C1759      C1764   1.422       .  A
C1759      F1766   1.357       .  S
C1760      C1761   1.420       .  A
C1761      C1762   1.407       .  A
C1761      F1768   1.358       .  S
C1762      C1763   1.408       .  A
C1762      F1767   1.358       .  S
C1763      C1764   1.420       .  A
C1764      F1765   1.357       .  S
C1769      C1770   1.419       .  A
C1769      C1774   1.422       .  A
C1769      F1776   1.357   1_565  S
C1770      C1771   1.406       .  A
C1771      C1772   1.401       .  A
C1771      F1778   1.358       .  S
C1772      C1773   1.418       .  A
C1772      F1777   1.358       .  S
C1773      C1774   1.412       .  A
C1774      F1775   1.357       .  S
C1779      C1780   1.402       .  A
C1779      C1784   1.399       .  A
C1779      F1786   1.358       .  S
C1780      C1781   1.400       .  A
C1781      C1782   1.385       .  A
C1781      F1788   1.358       .  S
C1782      C1783   1.406       .  A
C1782      F1787   1.359       .  S
C1783      C1784   1.408       .  A
C1784      F1785   1.358       .  S
C1789      C1790   1.407       .  A
C1789      C1794   1.383       .  A
C1789      F1796   1.359   1_565  S
C1790      C1791   1.402       .  A
C1791      C1792   1.395       .  A
C1791      F1798   1.357       .  S
C1792      C1793   1.402       .  A
C1792      F1797   1.358       .  S
C1793      C1794   1.396       .  A
C1794      F1795   1.359       .  S
C1799      C1800   1.406       .  A
C1799      C1804   1.413       .  A
C1799      F1806   1.356       .  S
C1800      C1801   1.421       .  A
C1801      C1802   1.389       .  A
C1801      F1808   1.359       .  S
C1802      C1803   1.395       .  A
C1802      F1807   1.359       .  S
C1803      C1804   1.412       .  A
C1804      F1805   1.356       .  S
C1809      C1810   1.409       .  A
C1809      C1814   1.400       .  A
C1809      F1816   1.358       .  S
C1810      C1811   1.411       .  A
C1811      C1812   1.390       .  A
C1811      F1818   1.357       .  S
C1812      C1813   1.406       .  A
C1812      F1817   1.359       .  S
C1813      C1814   1.412       .  A
C1814      F1815   1.357       .  S
C1819      C1820   1.419       .  A
C1819      C1824   1.423       .  A
C1819      F1826   1.357       .  S
C1820      C1821   1.407       .  A
C1821      C1822   1.409       .  A
C1821      F1828   1.358       .  S
C1822      C1823   1.421       .  A
C1822      F1827   1.358       .  S
C1823      C1824   1.413       .  A
C1824      F1825   1.357       .  S
C1829      C1830   1.406       .  A
C1829      C1834   1.399       .  A
C1829      F1836   1.358       .  S
C1830      C1831   1.409       .  A
C1831      C1832   1.380       .  A
C1831      F1838   1.357       .  S
C1832      C1833   1.396       .  A
C1832      F1837   1.353       .  S
C1833      C1834   1.414       .  A
C1834      F1835   1.357       .  S
C1839      C1840   1.424       .  A
C1839      C1844   1.396       .  A
C1839      F1846   1.358       .  S
C1840      C1841   1.405       .  A
C1841      C1842   1.414       .  A
C1841      F1848   1.357       .  S
C1842      C1843   1.420       .  A
C1842      F1847   1.358       .  S
C1843      C1844   1.397       .  A
C1844      F1845   1.358       .  S
C1849      C1850   1.411       .  A
C1849      C1854   1.389       .  A
C1849      F1856   1.355       .  S
C1850      C1851   1.406       .  A
C1851      C1852   1.401       .  A
C1851      F1858   1.358       .  S
C1852      C1853   1.415       .  A
C1852      F1857   1.357       .  S
C1853      C1854   1.406       .  A
C1854      F1855   1.359       .  S
C1859      C1860   1.413       .  A
C1859      C1864   1.419       .  A
C1859      F1866   1.357       .  S
C1860      C1861   1.402       .  A
C1861      C1862   1.402       .  A
C1861      F1868   1.358       .  S
C1862      C1863   1.420       .  A
C1862      F1867   1.358       .  S
C1863      C1864   1.413       .  A
C1864      F1865   1.357       .  S
C1869      C1870   1.396       .  A
C1869      C1874   1.386       .  A
C1869      F1876   1.359       .  S
C1870      C1871   1.403       .  A
C1871      C1872   1.392       .  A
C1871      F1878   1.357       .  S
C1872      C1873   1.399       .  A
C1872      F1877   1.358       .  S
C1873      C1874   1.404       .  A
C1874      F1875   1.359       .  S
C1879      C1880   1.406       .  A
C1879      C1884   1.382       .  A
C1879      F1886   1.359       .  S
C1880      C1881   1.405       .  A
C1881      C1882   1.396       .  A
C1881      F1888   1.358       .  S
C1882      C1883   1.402       .  A
C1882      F1887   1.358       .  S
C1883      C1884   1.396       .  A
C1884      F1885   1.359       .  S
C1889      C1890   1.405       .  A
C1889      C1894   1.385       .  A
C1889      F1896   1.359       .  S
C1890      C1891   1.408       .  A
C1891      C1892   1.396       .  A
C1891      F1898   1.357       .  S
C1892      C1893   1.399       .  A
C1892      F1897   1.358       .  S
C1893      C1894   1.401       .  A
C1894      F1895   1.359       .  S
C1899      C1900   1.419       .  A
C1899      C1904   1.404       .  A
C1899      F1906   1.358       .  S
C1900      C1901   1.414       .  A
C1901      C1902   1.422       .  A
C1901      F1908   1.357       .  S
C1902      C1903   1.415       .  A
C1902      F1907   1.357       .  S
C1903      C1904   1.402       .  A
C1904      F1905   1.358       .  S
C1909      C1910   1.419       .  A
C1909      C1914   1.409       .  A
C1909      F1916   1.357       .  S
C1910      C1911   1.412       .  A
C1911      C1912   1.424       .  A
C1911      F1918   1.357       .  S
C1912      C1913   1.423       .  A
C1912      F1917   1.357       .  S
C1913      C1914   1.409       .  A
C1914      F1915   1.357       .  S
C1919      C1920   1.408       .  A
C1919      C1924   1.407       .  A
C1919      F1926   1.357       .  S
C1920      C1921   1.415       .  A
C1921      C1922   1.391       .  A
C1921      F1928   1.358       .  S
C1922      C1923   1.402       .  A
C1922      F1927   1.358       .  S
C1923      C1924   1.410       .  A
C1924      F1925   1.357       .  S
C1929      C1930   1.408       .  A
C1929      C1934   1.391       .  A
C1929      F1936   1.354       .  S
C1930      C1931   1.408       .  A
C1931      C1932   1.400       .  A
C1931      F1938   1.358       .  S
C1932      C1933   1.411       .  A
C1932      F1937   1.357       .  S
C1933      C1934   1.407       .  A
C1934      F1935   1.359       .  S
C1939      C1940   1.410       .  A
C1939      C1944   1.403       .  A
C1939      F1946   1.358       .  S
C1940      C1941   1.405       .  A
C1941      C1942   1.393       .  A
C1941      F1948   1.356       .  S
C1942      C1943   1.407       .  A
C1942      F1947   1.355       .  S
C1943      C1944   1.412       .  A
C1944      F1945   1.358       .  S
C1949      C1950   1.398       .  A
C1949      C1954   1.393       .  A
C1949      F1956   1.359       .  S
C1950      C1951   1.415       .  A
C1951      C1952   1.415       .  A
C1951      F1958   1.357       .  S
C1952      C1953   1.408       .  A
C1952      F1957   1.357       .  S
C1953      C1954   1.422       .  A
C1954      F1955   1.359       .  S
C1959      C1960   1.402       .  A
C1959      C1964   1.405       .  A
C1959      F1966   1.358       .  S
C1960      C1961   1.414       .  A
C1961      C1962   1.420       .  A
C1961      F1968   1.357       .  S
C1962      C1963   1.413       .  A
C1962      F1967   1.357       .  S
C1963      C1964   1.421       .  A
C1964      F1965   1.357       .  S
C1969      C1970   1.422       .  A
C1969      C1974   1.402       .  A
C1969      F1976   1.357       .  S
C1970      C1971   1.410       .  A
C1971      C1972   1.424       .  A
C1971      F1978   1.357       .  S
C1972      C1973   1.423       .  A
C1972      F1977   1.357       .  S
C1973      C1974   1.405       .  A
C1974      F1975   1.358       .  S
C1979      C1980   1.406       .  A
C1979      C1984   1.396       .  A
C1979      F1986   1.358       .  S
C1980      C1981   1.408       .  A
C1981      C1982   1.381       .  A
C1981      F1988   1.359       .  S
C1982      C1983   1.395       .  A
C1982      F1987   1.359       .  S
C1983      C1984   1.402       .  A
C1984      F1985   1.358       .  S
C1989      C1990   1.408       .  A
C1989      C1994   1.397       .  A
C1989      F1996   1.358       .  S
C1990      C1991   1.406       .  A
C1991      C1992   1.385       .  A
C1991      F1998   1.358       .  S
C1992      C1993   1.398       .  A
C1992      F1997   1.359       .  S
C1993      C1994   1.401       .  A
C1994      F1995   1.358       .  S
C1999      C2000   1.419       .  A
C1999      C2004   1.405       .  A
C1999      F2006   1.358       .  S
C2000      C2001   1.412       .  A
C2001      C2002   1.421       .  A
C2001      F2008   1.357       .  S
C2002      C2003   1.418       .  A
C2002      F2007   1.357       .  S
C2003      C2004   1.407       .  A
C2004      F2005   1.358       .  S
C2009      C2010   1.402       .  A
C2009      C2014   1.404       .  A
C2009      F2016   1.358       .  S
C2010      C2011   1.413       .  A
C2011      C2012   1.420       .  A
C2011      F2018   1.357       .  S
C2012      C2013   1.413       .  A
C2012      F2017   1.357       .  S
C2013      C2014   1.418       .  A
C2014      F2015   1.358       .  S
C2019      C2020   1.402       .  A
C2019      C2024   1.384       .  A
C2019      F2026   1.359       .  S
C2020      C2021   1.401       .  A
C2021      C2022   1.399       .  A
C2021      F2028   1.358       .  S
C2022      C2023   1.410       .  A
C2022      F2027   1.358       .  S
C2023      C2024   1.406       .  A
C2024      F2025   1.358       .  S
C2029      C2030   1.404       .  A
C2029      C2034   1.396       .  A
C2029      F2036   1.358       .  S
C2030      C2031   1.407       .  A
C2031      C2032   1.382       .  A
C2031      F2038   1.359       .  S
C2032      C2033   1.395       .  A
C2032      F2037   1.359       .  S
C2033      C2034   1.403       .  A
C2034      F2035   1.358       .  S
