geometry optimzed in LAMMPS
_audit_creation_date              2020-12-01 
_audit_creation_method            'lammps2cif' 
_symmetry_space_group_name_H-M    'P1' 
_symmetry_Int_Tables_number       1 
_symmetry_cell_setting            triclinic 
loop_ 
_symmetry_equiv_pos_as_xyz 
  x,y,z 
_cell_length_a                    49.31815655 
_cell_length_b                    49.43580386688239 
_cell_length_c                    30.056784417129457 
_cell_angle_alpha                 89.94951348580437 
_cell_angle_beta                  89.73589216322998 
_cell_angle_gamma                 119.85907403236662 
loop_ 
_atom_site_label 
_atom_site_type_symbol 
_atom_site_fract_x 
_atom_site_fract_y 
_atom_site_fract_z 
_atom_site_charge 
O1          O  0.79263899  0.68167372  0.64882130    -0.71000
O2          O  0.87828359  0.71990488  0.68008970    -0.71300
O3          O  0.84582192  0.70129673  0.60312744    -0.71100
O4          O  0.82536680  0.69992188  0.72580196    -0.71100
O5          O  0.82112712  0.65431081  0.73256558    -0.71100
O6          O  0.84151658  0.65585501  0.61073799    -0.71100
O7          O  0.87416071  0.67428531  0.68691181    -0.71000
O8          O  0.78818974  0.63599894  0.65599701    -0.71200
V9          V  0.83538773  0.69981738  0.66460118     1.35200
V10         V  0.83127781  0.65598505  0.67142934     1.35200
C11         C  0.77605062  0.65242040  0.64545156     0.78200
C12         C  0.89071056  0.70362425  0.68949540     0.78300
C13         C  0.84641732  0.67827939  0.58558039     0.78100
C14         C  0.82102840  0.67731838  0.75051064     0.78100
O15         O  0.15358752  0.80461471  0.89340504    -0.71000
O16         O  0.17750499  0.81321916  0.77148474    -0.71300
O17         O  0.20850244  0.82746529  0.85054042    -0.71100
O18         O  0.12322964  0.79075154  0.81500610    -0.71100
O19         O  0.12766541  0.83661195  0.81274128    -0.71100
O20         O  0.21206478  0.87296239  0.84930582    -0.71100
O21         O  0.18202735  0.85910459  0.77016213    -0.71000
O22         O  0.15726458  0.85003952  0.89147342    -0.71200
V23         V  0.16587473  0.80988908  0.83254088     1.35200
V24         V  0.16977809  0.85380850  0.83094600     1.35200
C25         C  0.15152903  0.82600650  0.91356178     0.78200
C26         C  0.18219403  0.83694273  0.74937321     0.78300
C27         C  0.22435581  0.85648208  0.85808284     0.78100
C28         C  0.11121359  0.80761812  0.80655496     0.78100
O29         O  0.50688473  0.96224600  0.95666810    -0.71000
O30         O  0.48484455  0.95367269  0.07927563    -0.71300
O31         O  0.45318677  0.93801023  0.00177963    -0.71100
O32         O  0.53897259  0.97802005  0.03445007    -0.71100
O33         O  0.54087274  0.02281284  0.03224027    -0.71100
O34         O  0.45523259  0.98284857  0.99986244    -0.71100
O35         O  0.48695240  0.99844233  0.07748071    -0.71000
O36         O  0.50885423  0.00697924  0.95494909    -0.71200
V37         V  0.49607328  0.95887011  0.01801542     1.35200
V38         V  0.49799442  0.00192530  0.01626501     1.35200
C39         C  0.51026356  0.98540852  0.93432702     0.78200
C40         C  0.48271661  0.97486378  0.09970692     0.78300
C41         C  0.43979641  0.95365954  0.99413618     0.78100
C42         C  0.55442357  0.00728278  0.03951402     0.78100
O43         O  0.15673828  0.30893296  0.39081390    -0.71000
O44         O  0.17726023  0.31081786  0.26816337    -0.71300
O45         O  0.21027129  0.33012739  0.34487179    -0.71100
O46         O  0.12411882  0.28984354  0.31447508    -0.71100
O47         O  0.12765412  0.33506529  0.30498280    -0.71100
O48         O  0.21264332  0.37513326  0.33993207    -0.71100
O49         O  0.18191537  0.35665344  0.26164909    -0.71000
O50         O  0.15821484  0.35316723  0.38330498    -0.71200
V51         V  0.16722301  0.31081691  0.32942580     1.35200
V52         V  0.17007926  0.35414166  0.32261320     1.35200
C53         C  0.15407986  0.33080745  0.40831014     0.78200
C54         C  0.18239538  0.33375957  0.24368485     0.78300
C55         C  0.22571544  0.35943941  0.34912627     0.78100
C56         C  0.11147496  0.30568285  0.30359607     0.78100
O57         O  0.84415120  0.15173033  0.10284033    -0.71000
O58         O  0.82869638  0.13588155  0.22654624    -0.71300
O59         O  0.79315601  0.11810185  0.15292742    -0.71100
O60         O  0.87957307  0.16935701  0.17688624    -0.71100
O61         O  0.87366660  0.20979464  0.18035839    -0.71100
O62         O  0.78626786  0.15781438  0.16172453    -0.71100
O63         O  0.82428349  0.17724898  0.23304405    -0.71000
O64         O  0.83591322  0.19071553  0.10860731    -0.71200
V65         V  0.83624883  0.14452715  0.16484030     1.35200
V66         V  0.83011435  0.18312053  0.17072349     1.35200
C67         C  0.84213079  0.17365961  0.08434070     0.78200
C68         C  0.82499222  0.15452014  0.25108560     0.78300
C69         C  0.77487749  0.12912256  0.15334310     0.78100
C70         C  0.89140239  0.19827991  0.18403424     0.78100
O71         O  0.51739543  0.48746764  0.42487686    -0.71000
O72         O  0.49480520  0.47524058  0.54745372    -0.71300
O73         O  0.46343757  0.45744226  0.46980586    -0.71100
O74         O  0.54885973  0.50556988  0.50288764    -0.71100
O75         O  0.54482559  0.54728273  0.50315043    -0.71100
O76         O  0.45993772  0.49933300  0.46881087    -0.71100
O77         O  0.49051646  0.51667896  0.54696924    -0.71000
O78         O  0.51415999  0.52960012  0.42432609    -0.71200
V79         V  0.50610501  0.48226500  0.48620151     1.35200
V80         V  0.50247397  0.52244749  0.48575996     1.35200
C81         C  0.51847017  0.50988431  0.40314335     0.78200
C82         C  0.48937416  0.49417842  0.56864061     0.78300
C83         C  0.44710480  0.47020008  0.46291441     0.78100
C84         C  0.56113354  0.53449768  0.51012912     0.78100
O85         O  0.17544692  0.35893807  0.76403953    -0.71000
O86         O  0.19230413  0.35117359  0.88577980    -0.71300
O87         O  0.20485793  0.33352290  0.80668794    -0.71100
O88         O  0.16318286  0.37675640  0.84372788    -0.71100
O89         O  0.11923163  0.33294802  0.84671302    -0.71100
O90         O  0.16122576  0.28959594  0.81226116    -0.71100
O91         O  0.14798887  0.30778551  0.89055610    -0.71000
O92         O  0.13233847  0.31482588  0.76865778    -0.71200
V93         V  0.18311530  0.35428699  0.82507805     1.35200
V94         V  0.14108187  0.31214575  0.82944576     1.35200
C95         C  0.15141710  0.33756018  0.74497232     0.78200
C96         C  0.17238656  0.32866891  0.90916180     0.78300
C97         C  0.18988950  0.30426354  0.80197991     0.78100
C98         C  0.13429066  0.36205414  0.85271115     0.78100
O99         O  0.34071244  0.17100584  0.71878879    -0.71000
O100        O  0.34008241  0.18513895  0.59404840    -0.71300
O101        O  0.32215098  0.20297373  0.66802236    -0.71100
O102        O  0.35962641  0.15385226  0.64468130    -0.71100
O103        O  0.31373709  0.11298498  0.63567614    -0.71100
O104        O  0.27631624  0.16146554  0.66745116    -0.71100
O105        O  0.29306564  0.14565378  0.59065368    -0.71000
O106        O  0.29633766  0.12836431  0.71247206    -0.71200
V107        V  0.33981585  0.17745752  0.65626375     1.35200
V108        V  0.29573538  0.13789106  0.65161428     1.35200
C109        C  0.31802092  0.14744225  0.73720045     0.78200
C110        C  0.31635452  0.16740063  0.57095029     0.78300
C111        C  0.29303691  0.19056208  0.67357190     0.78100
C112        C  0.34318154  0.12542020  0.63484420     0.78100
O113        O  0.00023982  0.45918277  0.98675013    -0.71000
O114        O  0.95783906  0.50314254  0.01649219    -0.71300
O115        O  0.97798872  0.48999598  0.93984746    -0.71100
O116        O  0.98037625  0.47250383  0.06268421    -0.71100
O117        O  0.02463234  0.51521297  0.06888301    -0.71100
O118        O  0.02256024  0.53251845  0.94614279    -0.71100
O119        O  0.00240901  0.54596602  0.02209548    -0.71000
O120        O  0.04477308  0.50188180  0.99313808    -0.71200
V121        V  0.97994363  0.48204530  0.00147981     1.35200
V122        V  0.02271626  0.52307987  0.00744039     1.35200
C123        C  0.02971838  0.47301383  0.98480623     0.78200
C124        C  0.97295259  0.53197230  0.02506744     0.78300
C125        C  0.00020698  0.51391750  0.92165439     0.78100
C126        C  0.00268095  0.49107593  0.08713628     0.78100
O127        O  0.62060270  0.82915348  0.35487033    -0.71000
O128        O  0.67337957  0.79670480  0.32086518    -0.71300
O129        O  0.65127600  0.80575881  0.39872598    -0.71100
O130        O  0.64226560  0.81977450  0.27714084    -0.71100
O131        O  0.68239067  0.86615983  0.28090879    -0.71100
O132        O  0.69194942  0.85197078  0.40291179    -0.71100
O133        O  0.71366297  0.84331893  0.32436038    -0.71000
O134        O  0.66142117  0.87532318  0.35936321    -0.71200
V135        V  0.64766417  0.81372165  0.33794152     1.35200
V136        V  0.68658129  0.85828162  0.34183043     1.35200
C137        C  0.63231042  0.85774616  0.36418957     0.78200
C138        C  0.70243116  0.81483778  0.31523765     0.78300
C139        C  0.67251254  0.82676753  0.42204463     0.78100
C140        C  0.66113300  0.84484531  0.25764538     0.78100
O141        O  0.86633705  0.69140210  0.22973713    -0.71000
O142        O  0.86106698  0.70448326  0.10629418    -0.71300
O143        O  0.84623195  0.72343708  0.18210705    -0.71100
O144        O  0.88118824  0.67240735  0.15370374    -0.71100
O145        O  0.83476970  0.63186902  0.15179377    -0.71100
O146        O  0.79972197  0.68300769  0.18077115    -0.71100
O147        O  0.81442188  0.66412292  0.10471760    -0.71000
O148        O  0.81983698  0.65088434  0.22827700    -0.71200
V149        V  0.86279227  0.69712198  0.16794909     1.35200
V150        V  0.81808642  0.65819022  0.16643907     1.35200
C151        C  0.84348532  0.66967919  0.25049525     0.78200
C152        C  0.83720257  0.68610304  0.08420179     0.78300
C153        C  0.81715075  0.71189226  0.18773745     0.78100
C154        C  0.86392003  0.64360622  0.14609221     0.78100
O155        O  0.48685475  0.94117599  0.50502629    -0.71000
O156        O  0.44058007  0.98161563  0.53193445    -0.71300
O157        O  0.45784136  0.96427116  0.45639066    -0.71100
O158        O  0.46989711  0.95847465  0.58008403    -0.71100
O159        O  0.51311181  0.00255213  0.57690579    -0.71100
O160        O  0.49954196  0.00964866  0.45431040    -0.71100
O161        O  0.48332329  0.02622939  0.53104822    -0.71000
O162        O  0.52926962  0.98624154  0.50012905    -0.71200
V163        V  0.46455368  0.96225573  0.51831175     1.35200
V164        V  0.50546863  0.00533352  0.51569781     1.35200
C165        C  0.51580995  0.95690853  0.49699952     0.78200
C166        C  0.45405884  0.01079942  0.53719335     0.78300
C167        C  0.47723299  0.98761907  0.43371027     0.78100
C168        C  0.49358883  0.97947043  0.59983325     0.78100
O169        O  0.30314973  0.17639120  0.21530956    -0.71000
O170        O  0.29592986  0.15529284  0.09291867    -0.71300
O171        O  0.27882397  0.12303457  0.17051450    -0.71100
O172        O  0.32028323  0.20863471  0.13832304    -0.71100
O173        O  0.36459143  0.20959163  0.13806645    -0.71100
O174        O  0.32374494  0.12511943  0.17547100    -0.71100
O175        O  0.33966384  0.15488628  0.09577691    -0.71000
O176        O  0.34856931  0.17958311  0.21702324    -0.71200
V177        V  0.30039513  0.16584579  0.15420072     1.35200
V178        V  0.34329245  0.16724517  0.15642678     1.35200
C179        C  0.32683505  0.18110107  0.23734172     0.78200
C180        C  0.31677452  0.15192809  0.07321060     0.78300
C181        C  0.29442021  0.11001718  0.18072861     0.78100
C182        C  0.34943322  0.22367871  0.13162113     0.78100
O183        O  0.48613316  0.51335385  0.04998270    -0.71000
O184        O  0.46755271  0.48982029  0.92786732    -0.71300
O185        O  0.45364871  0.45915040  0.00688199    -0.71100
O186        O  0.49978513  0.54427624  0.97143030    -0.71100
O187        O  0.54162148  0.54049502  0.96500688    -0.71100
O188        O  0.49585146  0.45575048  0.00207427    -0.71100
O189        O  0.50932098  0.48589319  0.92318317    -0.71000
O190        O  0.52822375  0.51030726  0.04394163    -0.71200
V191        V  0.47755234  0.50157570  0.98887784     1.35200
V192        V  0.51790797  0.49818238  0.98363395     1.35200
C193        C  0.51005156  0.51514267  0.06828021     0.78200
C194        C  0.48571834  0.48440324  0.90438265     0.78300
C195        C  0.46713847  0.44331267  0.01166471     0.78100
C196        C  0.52845347  0.55672499  0.96135426     0.78100
O197        O  0.15410209  0.84744850  0.39623583    -0.71000
O198        O  0.13609955  0.82940278  0.27395959    -0.71300
O199        O  0.12289715  0.79530601  0.34944285    -0.71100
O200        O  0.16781952  0.88171902  0.32115476    -0.71100
O201        O  0.21055262  0.87960966  0.31701699    -0.71100
O202        O  0.16489449  0.79251473  0.33741433    -0.71100
O203        O  0.17981287  0.82959797  0.26493095    -0.71000
O204        O  0.19506377  0.84251690  0.38952772    -0.71200
V205        V  0.14603464  0.83842757  0.33500182     1.35200
V206        V  0.18680145  0.83611466  0.32731453     1.35200
C207        C  0.17677191  0.84685430  0.41446818     0.78200
C208        C  0.15523184  0.82733661  0.24814356     0.78300
C209        C  0.13647666  0.77932962  0.34873701     0.78100
C210        C  0.19698670  0.89542613  0.31380598     0.78100
O211        O  0.99265245  0.51639456  0.56490047    -0.71000
O212        O  0.98456518  0.49387247  0.44305867    -0.71300
O213        O  0.96940122  0.46229818  0.52097155    -0.71100
O214        O  0.00821920  0.54773034  0.48669266    -0.71100
O215        O  0.05356502  0.55081923  0.49011325    -0.71100
O216        O  0.01474704  0.46515280  0.52115368    -0.71100
O217        O  0.03035169  0.49779956  0.44410085    -0.71000
O218        O  0.03743026  0.51798785  0.56734774    -0.71200
V219        V  0.98958301  0.50512831  0.50402004     1.35200
V220        V  0.03316922  0.50792595  0.50565609     1.35200
C221        C  0.01588015  0.52010773  0.58721384     0.78200
C222        C  0.00637489  0.49278823  0.42239046     0.78300
C223        C  0.98553689  0.44920088  0.52716846     0.78100
C224        C  0.03758194  0.56368501  0.48155225     0.78100
O225        O  0.83529828  0.18291283  0.72806613    -0.71000
O226        O  0.82284360  0.16116370  0.60636120    -0.71300
O227        O  0.80621212  0.12924166  0.68372375    -0.71100
O228        O  0.85237854  0.21509036  0.65081017    -0.71100
O229        O  0.89508415  0.21269128  0.65144105    -0.71100
O230        O  0.84874644  0.12661005  0.68068851    -0.71100
O231        O  0.86603295  0.15990432  0.60438044    -0.71000
O232        O  0.87717614  0.17919648  0.72792070    -0.71200
V233        V  0.83001665  0.17207895  0.66717057     1.35200
V234        V  0.87098546  0.16970131  0.66612341     1.35200
C235        C  0.85763965  0.18362318  0.74946105     0.78200
C236        C  0.84248550  0.15736682  0.58406461     0.78300
C237        C  0.81974279  0.11334712  0.68838025     0.78100
C238        C  0.88166121  0.22838879  0.64467313     0.78100
O239        O  0.65174022  0.82971875  0.77564470    -0.71000
O240        O  0.65445340  0.84804951  0.89870889    -0.71300
O241        O  0.67508310  0.88200406  0.82287558    -0.71100
O242        O  0.63082762  0.79578943  0.85095960    -0.71100
O243        O  0.67455212  0.79575138  0.85725446    -0.71100
O244        O  0.71908645  0.88226423  0.82885002    -0.71100
O245        O  0.69833438  0.84836704  0.90466827    -0.71000
O246        O  0.69537844  0.82957092  0.78171464    -0.71200
V247        V  0.65388873  0.83891179  0.83726525     1.35200
V248        V  0.69602044  0.83900624  0.84303512     1.35200
C249        C  0.67355628  0.82725535  0.75729586     0.78200
C250        C  0.67650146  0.85077270  0.92304132     0.78300
C251        C  0.70454125  0.89660640  0.81983604     0.78100
C252        C  0.64498016  0.78101218  0.85923484     0.78100
C253        C  0.79232562  0.02751338  0.71292398    -0.11100
C254        C  0.76859656  0.02068175  0.74418279     0.11400
C255        C  0.76169986  0.04415203  0.75695379    -0.02900
C256        C  0.77844411  0.07371211  0.73680212    -0.05700
C257        C  0.80229053  0.08076434  0.70540817    -0.16500
C258        C  0.80939659  0.05719223  0.69303537     0.02500
C259        C  0.75163098  0.98874090  0.76338122     0.12400
C260        C  0.73707309  0.03808755  0.79214051     0.63000
H261        H  0.77357583  0.09199356  0.74649476     0.12400
C262        C  0.83416437  0.06279896  0.65833578     0.55200
H263        H  0.79742313  0.00919447  0.70435365     0.08200
C264        C  0.72685752  0.96365976  0.74048558    -0.05600
C265        C  0.71173600  0.93407864  0.76080582    -0.06300
C266        C  0.72109179  0.92883415  0.80243650    -0.15900
C267        C  0.74587560  0.95384947  0.82530918    -0.01500
C268        C  0.76099827  0.98352184  0.80504800    -0.09000
C269        C  0.71677536  0.96802568  0.69457154     0.65200
H270        H  0.69286283  0.91448715  0.74378696     0.10700
C271        C  0.75540706  0.94941569  0.87146811     0.63600
H272        H  0.78024734  0.00301762  0.82163277     0.08100
F273        F  0.82869115  0.07476773  0.61999257    -0.19400
F274        F  0.83397800  0.03552878  0.64717987    -0.15600
F275        F  0.86352532  0.08348051  0.67448747    -0.19100
F276        F  0.74554238  0.03074662  0.83218886    -0.22500
F277        F  0.70848405  0.01356879  0.77931992    -0.24000
F278        F  0.73360282  0.06390677  0.79887743    -0.18000
F279        F  0.77805014  0.97733637  0.88945353    -0.20400
F280        F  0.76734120  0.92938663  0.86965933    -0.21600
F281        F  0.72963417  0.93700231  0.89950156    -0.18800
F282        F  0.69129476  0.94091136  0.67923810    -0.18900
F283        F  0.74104236  0.97658894  0.66455910    -0.22700
F284        F  0.70860661  0.99100878  0.69575889    -0.24300
C285        C  0.93788513  0.30262823  0.58133884    -0.11100
C286        C  0.92983188  0.32390368  0.59889727     0.11400
C287        C  0.90607082  0.31393897  0.63178473    -0.02900
C288        C  0.89121240  0.28265284  0.64627349    -0.05700
C289        C  0.89955223  0.26133122  0.62918308    -0.16500
C290        C  0.92337755  0.27147142  0.59607675     0.02500
C291        C  0.94527924  0.35593600  0.57983525     0.12400
C292        C  0.89648817  0.33628321  0.65137554     0.63000
H293        H  0.87287443  0.27454828  0.67121162     0.12400
C294        C  0.93261221  0.24936865  0.57472300     0.55200
H295        H  0.95556355  0.31070421  0.55542822     0.08200
C296        C  0.97551246  0.37934072  0.59286561    -0.05600
C297        C  0.98769874  0.40950038  0.57483700    -0.06300
C298        C  0.97116874  0.41650288  0.54316060    -0.15900
C299        C  0.94208569  0.39231142  0.52742000    -0.01500
C300        C  0.92950615  0.36241354  0.54650455    -0.09000
C301        C  0.99497300  0.37234322  0.62494283     0.65200
H302        H  0.01032687  0.42800353  0.58557691     0.10700
C303        C  0.92496795  0.39757273  0.48953371     0.63600
H304        H  0.90700369  0.34370481  0.53571124     0.08100
F305        F  0.95361974  0.26333795  0.53997967    -0.19400
F306        F  0.90635501  0.22375924  0.55787001    -0.15600
F307        F  0.94661383  0.23975535  0.60587973    -0.19100
F308        F  0.88506170  0.34728219  0.61831583    -0.22500
F309        F  0.92204196  0.36121320  0.67084766    -0.24000
F310        F  0.87338907  0.32202484  0.68351459    -0.18000
F311        F  0.90021271  0.36980012  0.47449075    -0.20400
F312        F  0.94525661  0.41169238  0.45411152    -0.21600
F313        F  0.91320820  0.41634108  0.50357743    -0.18800
F314        F  0.02327892  0.39869612  0.63424987    -0.18900
F315        F  0.00127587  0.35044747  0.60646876    -0.22700
F316        F  0.97895038  0.36082739  0.66457633    -0.24300
C317        C  0.10596471  0.69229080  0.36041591    -0.11100
C318        C  0.09203938  0.68678624  0.40273932     0.11400
C319        C  0.09261940  0.71162623  0.42688203    -0.02900
C320        C  0.10609761  0.74118019  0.40678941    -0.05700
C321        C  0.12030758  0.74682794  0.36469954    -0.16500
C322        C  0.12049962  0.72219259  0.34096629     0.02500
C323        C  0.07789217  0.65494929  0.42179019     0.12400
C324        C  0.08003876  0.70715919  0.47418784     0.63000
H325        H  0.10693995  0.76059034  0.42472991     0.12400
C326        C  0.13585347  0.72742043  0.29546898     0.55200
H327        H  0.10584438  0.67300960  0.34312943     0.08200
C328        C  0.04717495  0.63149807  0.41121763    -0.05600
C329        C  0.03485540  0.60228463  0.43226159    -0.06300
C330        C  0.05237497  0.59580274  0.46292767    -0.15900
C331        C  0.08340117  0.61943104  0.47305102    -0.01500
C332        C  0.09565292  0.64855940  0.45172602    -0.09000
C333        C  0.02761345  0.63738986  0.37784014     0.65200
H334        H  0.01144915  0.58397872  0.42420344     0.10700
C335        C  0.10338463  0.61461388  0.50695357     0.63600
H336        H  0.11930251  0.66690307  0.45851012     0.08100
F337        F  0.12545073  0.74275350  0.26793171    -0.19400
F338        F  0.12898138  0.69956214  0.27532800    -0.15600
F339        F  0.16795607  0.74518617  0.29966413    -0.19100
F340        F  0.09762559  0.69958374  0.50180328    -0.22500
F341        F  0.04922937  0.68346567  0.47568842    -0.24000
F342        F  0.08136463  0.73394940  0.49059249    -0.18000
F343        F  0.13060632  0.64214676  0.51627991    -0.20400
F344        F  0.11177447  0.59361352  0.49084449    -0.21600
F345        F  0.08692965  0.60348021  0.54636809    -0.18800
F346        F  0.99826176  0.61149311  0.37257690    -0.18900
F347        F  0.04233904  0.64475556  0.33677824    -0.22700
F348        F  0.02376211  0.66187206  0.39199232    -0.24300
C349        C  0.58154664  0.63034297  0.89519915    -0.11100
C350        C  0.57918950  0.65288230  0.92034190     0.11400
C351        C  0.55900927  0.64377678  0.95781606    -0.02900
C352        C  0.54311946  0.61212785  0.97051317    -0.05700
C353        C  0.54612911  0.58957109  0.94604294    -0.16500
C354        C  0.56475815  0.59859757  0.90681340     0.02500
C355        C  0.59669636  0.68562610  0.90460497     0.12400
C356        C  0.55387743  0.66729736  0.98358662     0.63000
H357        H  0.52807301  0.60468388  0.99961711     0.12400
C358        C  0.56482763  0.57468762  0.87534732     0.55200
H359        H  0.59621916  0.63786819  0.86570813     0.08200
C360        C  0.62796712  0.70606779  0.91717519    -0.05600
C361        C  0.64277078  0.73700009  0.90154973    -0.06300
C362        C  0.62763434  0.74767375  0.87280519    -0.15900
C363        C  0.59677578  0.72646577  0.85825950    -0.01500
C364        C  0.58181477  0.69575487  0.87486001    -0.09000
C365        C  0.64595626  0.69490721  0.94548428     0.65200
H366        H  0.66648916  0.75314773  0.91170691     0.10700
C367        C  0.57978102  0.73561296  0.82464998     0.63600
H368        H  0.55814076  0.67923539  0.86490588     0.08100
F369        F  0.57835590  0.55917341  0.89539433    -0.19400
F370        F  0.58124964  0.58820619  0.83648873    -0.15600
F371        F  0.53435843  0.55365685  0.86393927    -0.19100
F372        F  0.54150875  0.68063752  0.95575459    -0.22500
F373        F  0.58189441  0.69050654  0.00036706    -0.24000
F374        F  0.53335200  0.65353252  0.01888971    -0.18000
F375        F  0.55246737  0.71001507  0.81004317    -0.20400
F376        F  0.59868626  0.74937738  0.78781547    -0.21600
F377        F  0.57189560  0.75620072  0.84379657    -0.18800
F378        F  0.67510245  0.71919324  0.95712655    -0.18900
F379        F  0.65016389  0.67330059  0.92180947    -0.22700
F380        F  0.62973817  0.68113918  0.98425411    -0.24300
C381        C  0.23997479  0.02448882  0.20871882    -0.11100
C382        C  0.25374947  0.02180545  0.24794262     0.11400
C383        C  0.28067325  0.04798879  0.26502219    -0.02900
C384        C  0.29325746  0.07626770  0.24148894    -0.05700
C385        C  0.27945331  0.07907822  0.20226057    -0.16500
C386        C  0.25209153  0.05300208  0.18577292     0.02500
C387        C  0.24036510  0.99064438  0.26876632     0.12400
C388        C  0.29609601  0.04600819  0.30765222     0.63000
H389        H  0.31397693  0.09662465  0.25379838     0.12400
C390        C  0.23610252  0.05503698  0.14392213     0.55200
H391        H  0.21953956  0.00391908  0.19628957     0.08200
C392        C  0.21314280  0.97793444  0.29553773    -0.05600
C393        C  0.20064440  0.94720627  0.31125371    -0.06300
C394        C  0.21426693  0.92886752  0.30050995    -0.15900
C395        C  0.24228845  0.94224484  0.27458134    -0.01500
C396        C  0.25464413  0.97299010  0.25908398    -0.09000
C397        C  0.19664359  0.99624424  0.30584790     0.65200
H398        H  0.17940710  0.93692943  0.33103354     0.10700
C399        C  0.25882214  0.92433267  0.26171645     0.63600
H400        H  0.27539633  0.98350852  0.23825525     0.08100
F401        F  0.22355851  0.07418293  0.15134951    -0.19400
F402        F  0.21206340  0.02609144  0.13111903    -0.15600
F403        F  0.25746149  0.06701942  0.10930178    -0.19100
F404        F  0.30858565  0.02671412  0.30134522    -0.22500
F405        F  0.27438269  0.03415204  0.34184851    -0.24000
F406        F  0.31996750  0.07498018  0.32071339    -0.18000
F407        F  0.28463206  0.94176035  0.23472361    -0.20400
F408        F  0.23861518  0.89770404  0.23857902    -0.21600
F409        F  0.26917537  0.91637041  0.29954219    -0.18800
F410        F  0.17326115  0.98130298  0.33742362    -0.18900
F411        F  0.18326946  0.99967925  0.26750986    -0.22700
F412        F  0.21762730  0.02543874  0.32207082    -0.24300
C413        C  0.43053148  0.37482790  0.09136148    -0.11100
C414        C  0.41770807  0.34970828  0.06176971     0.11400
C415        C  0.42024696  0.35529321  0.01524617    -0.02900
C416        C  0.43655050  0.38635109  0.99987107    -0.05700
C417        C  0.45003800  0.41138509  0.02962913    -0.16500
C418        C  0.44725663  0.40571863  0.07602914     0.02500
C419        C  0.40079215  0.31783976  0.08086946     0.12400
C420        C  0.40591217  0.32861024  0.98218425     0.63000
H421        H  0.43894961  0.39138299  0.96452677     0.12400
C422        C  0.46237210  0.43224049  0.10905367     0.55200
H423        H  0.42758871  0.36992219  0.12673758     0.08200
C424        C  0.41661338  0.30300141  0.09837832    -0.05600
C425        C  0.39879242  0.27265608  0.11558930    -0.06300
C426        C  0.36584138  0.25671486  0.11584108    -0.15900
C427        C  0.35012101  0.27232061  0.09952213    -0.01500
C428        C  0.36815325  0.30286850  0.08291353    -0.09000
C429        C  0.45212330  0.31895627  0.09834568     0.65200
H430        H  0.41072595  0.26101209  0.12866930     0.10700
C431        C  0.31468125  0.25715062  0.09844708     0.63600
H432        H  0.35690321  0.31541192  0.07059399     0.08100
F433        F  0.49429010  0.44863096  0.10169015    -0.19400
F434        F  0.45718165  0.42169281  0.15265107    -0.15600
F435        F  0.45027756  0.45192722  0.10381425    -0.19100
F436        F  0.37383736  0.31186933  0.98783852    -0.22500
F437        F  0.41797324  0.30896414  0.98864914    -0.24000
F438        F  0.41204524  0.33921942  0.93864149    -0.18000
F439        F  0.30501522  0.27667555  0.08025572    -0.20400
F440        F  0.30270477  0.24979460  0.14124046    -0.21600
F441        F  0.30228103  0.23046076  0.07274233    -0.18800
F442        F  0.46266484  0.30003574  0.11615037    -0.18900
F443        F  0.46447753  0.34586174  0.12345892    -0.22700
F444        F  0.46337535  0.32652002  0.05526735    -0.24300
C445        C  0.69841004  0.82698424  0.63645044    -0.11100
C446        C  0.67034107  0.81827093  0.61430883     0.11400
C447        C  0.64287688  0.81006667  0.63933486    -0.02900
C448        C  0.64492695  0.81183781  0.68591328    -0.05700
C449        C  0.67345004  0.82253693  0.70830300    -0.16500
C450        C  0.70092558  0.83050730  0.68294668     0.02500
C451        C  0.67170350  0.82061059  0.56509595     0.12400
C452        C  0.61106422  0.80028506  0.61935711     0.63000
H453        H  0.62388793  0.80565897  0.70497257     0.12400
C454        C  0.73316954  0.84456856  0.70377901     0.55200
H455        H  0.71892758  0.83281555  0.61639341     0.08200
C456        C  0.68247805  0.84958728  0.54333284    -0.05600
C457        C  0.68338231  0.85044204  0.49664190    -0.06300
C458        C  0.67322006  0.82330101  0.47111344    -0.15900
C459        C  0.66258312  0.79419294  0.49311793    -0.01500
C460        C  0.66255593  0.79355110  0.54002441    -0.09000
C461        C  0.69218649  0.87935075  0.56941098     0.65200
H462        H  0.69109009  0.87241326  0.47960430     0.10700
C463        C  0.65136046  0.76393724  0.46771261     0.63600
H464        H  0.65455428  0.77174928  0.55770246     0.08100
F465        F  0.73948285  0.87111879  0.72728971    -0.19400
F466        F  0.75653276  0.85314363  0.67207939    -0.15600
F467        F  0.73450037  0.82311871  0.73190165    -0.19100
F468        F  0.58963134  0.77091020  0.63503663    -0.22500
F469        F  0.61074820  0.79932056  0.57345271    -0.24000
F470        F  0.60156604  0.82110184  0.63253245    -0.18000
F471        F  0.67328106  0.76757558  0.43586713    -0.20400
F472        F  0.62318580  0.75559925  0.44737646    -0.21600
F473        F  0.64678079  0.73963691  0.49549843    -0.18800
F474        F  0.70105558  0.90481384  0.54170191    -0.18900
F475        F  0.71725609  0.88578072  0.59647599    -0.22700
F476        F  0.66743873  0.87585694  0.59543421    -0.24300
C477        C  0.65745170  0.86702674  0.04025014    -0.11100
C478        C  0.67417581  0.85689680  0.06619142     0.11400
C479        C  0.69260751  0.84590153  0.04534733    -0.02900
C480        C  0.69355622  0.84545186  0.99855245    -0.05700
C481        C  0.67619310  0.85493139  0.97216320    -0.16500
C482        C  0.65823862  0.86654907  0.99349120     0.02500
C483        C  0.66950981  0.85546261  0.11510455     0.12400
C484        C  0.71043266  0.83386421  0.07240837     0.63000
H485        H  0.70706658  0.83649070  0.98224391     0.12400
C486        C  0.63980231  0.87839183  0.96769139     0.55200
H487        H  0.64302635  0.87465402  0.05724430     0.08200
C488        C  0.68640664  0.88154647  0.14291019    -0.05600
C489        C  0.68191297  0.87745241  0.18926146    -0.06300
C490        C  0.66018995  0.84850420  0.20833240    -0.15900
C491        C  0.64057083  0.82344396  0.17947891    -0.01500
C492        C  0.64616175  0.82740398  0.13336338    -0.09000
C493        C  0.70897666  0.91344707  0.12359072     0.65200
H494        H  0.69597663  0.89686408  0.21099823     0.10700
C495        C  0.61395318  0.79247464  0.19629901     0.63600
H496        H  0.63257001  0.80831990  0.11082957     0.08100
F497        F  0.65876943  0.89978990  0.93585798    -0.19400
F498        F  0.62851053  0.89310116  0.99509072    -0.15600
F499        F  0.61445400  0.85366836  0.94748028    -0.19100
F500        F  0.68969979  0.80792115  0.09673857    -0.22500
F501        F  0.73066239  0.85666627  0.10128696    -0.24000
F502        F  0.72789559  0.82542601  0.04557623    -0.18000
F503        F  0.59441791  0.79769323  0.22373729    -0.20400
F504        F  0.62578570  0.77639403  0.21925316    -0.21600
F505        F  0.59590499  0.77362266  0.16183832    -0.18800
F506        F  0.72246004  0.93587251  0.15637388    -0.18900
F507        F  0.69323489  0.92271701  0.09499429    -0.22700
F508        F  0.73261694  0.91228846  0.10036683    -0.24300
C509        C  0.75794552  0.80240559  0.24109946    -0.11100
C510        C  0.75635733  0.77611982  0.26115539     0.11400
C511        C  0.73947443  0.76427701  0.30137460    -0.02900
C512        C  0.72183361  0.77736494  0.31792247    -0.05700
C513        C  0.72259885  0.80315941  0.29715808    -0.16500
C514        C  0.74174128  0.81663098  0.25886947     0.02500
C515        C  0.77245186  0.76122587  0.23905218     0.12400
C516        C  0.74111858  0.73874035  0.32727108     0.63000
H517        H  0.70779876  0.76798795  0.34778544     0.12400
C518        C  0.74422895  0.84513068  0.23579490     0.55200
H519        H  0.77181455  0.81145449  0.21103358     0.08200
C520        C  0.75715798  0.73725199  0.20737707    -0.05600
C521        C  0.77292067  0.72227417  0.19056789    -0.06300
C522        C  0.80360198  0.73115355  0.20355193    -0.15900
C523        C  0.81943176  0.75646458  0.23366433    -0.01500
C524        C  0.80337942  0.77107023  0.25077530    -0.09000
C525        C  0.72439754  0.72774038  0.19145263     0.65200
H526        H  0.76126171  0.70330110  0.16716645     0.10700
C527        C  0.85255399  0.76740189  0.24936100     0.63600
H528        H  0.81457443  0.78997230  0.27440052     0.08100
F529        F  0.76243636  0.85295415  0.19761460    -0.19400
F530        F  0.75767002  0.87050160  0.26402613    -0.15600
F531        F  0.71483364  0.83922576  0.22373766    -0.19100
F532        F  0.77157358  0.74950966  0.34072575    -0.22500
F533        F  0.73173243  0.71263870  0.30107584    -0.24000
F534        F  0.72223697  0.72991117  0.36480891    -0.18000
F535        F  0.87311435  0.77925890  0.21377629    -0.20400
F536        F  0.85417111  0.74274470  0.26834518    -0.21600
F537        F  0.86218531  0.79072019  0.28095087    -0.18800
F538        F  0.71365318  0.70374363  0.16082437    -0.18900
F539        F  0.72446475  0.75295596  0.17139164    -0.22700
F540        F  0.70371417  0.71781080  0.22694906    -0.24300
C541        C  0.56758595  0.87637343  0.39011992    -0.11100
C542        C  0.58191114  0.89851004  0.42388819     0.11400
C543        C  0.61217999  0.90656888  0.43857522    -0.02900
C544        C  0.62747186  0.89237792  0.41805536    -0.05700
C545        C  0.61351056  0.87057912  0.38362634    -0.16500
C546        C  0.58306231  0.86238641  0.36913150     0.02500
C547        C  0.56501740  0.91367513  0.44236755     0.12400
C548        C  0.62829532  0.93015766  0.47553539     0.63000
H549        H  0.65060752  0.89810368  0.42906504     0.12400
C550        C  0.56750864  0.84019257  0.33064149     0.55200
H551        H  0.54428131  0.87056737  0.37987623     0.08200
C552        C  0.56535028  0.93919327  0.42053035    -0.05600
C553        C  0.54976317  0.95323167  0.44063044    -0.06300
C554        C  0.53313815  0.94181625  0.48063411    -0.15900
C555        C  0.53258350  0.91613395  0.50239171    -0.01500
C556        C  0.54869021  0.90239866  0.48264034    -0.09000
C557        C  0.58121298  0.95087701  0.37557235     0.65200
H558        H  0.54943460  0.97262950  0.42434701     0.10700
C559        C  0.51600764  0.90401627  0.54675653     0.63600
H560        H  0.54871788  0.88270511  0.49841741     0.08100
F561        F  0.58711379  0.85025038  0.29386848    -0.19400
F562        F  0.53965568  0.83861071  0.31876153    -0.15600
F563        F  0.56101877  0.81051209  0.34235906    -0.19100
F564        F  0.61134693  0.91928260  0.51461577    -0.22500
F565        F  0.63053132  0.95832509  0.46430248    -0.24000
F566        F  0.65821860  0.93548607  0.48328577    -0.18000
F567        F  0.48414234  0.89143015  0.54158516    -0.20400
F568        F  0.52685075  0.92819646  0.57706294    -0.21600
F569        F  0.52115108  0.88102136  0.56414880    -0.18800
F570        F  0.58092078  0.97752536  0.36211994    -0.18900
F571        F  0.56572959  0.92811782  0.34386193    -0.22700
F572        F  0.61202350  0.95783724  0.37740864    -0.24300
C573        C  0.01055436  0.54720253  0.70399577    -0.11100
C574        C  0.01159594  0.52405708  0.72972242     0.11400
C575        C  0.01475919  0.50017999  0.70850136    -0.02900
C576        C  0.01790601  0.50096986  0.66191914    -0.05700
C577        C  0.01628156  0.52374674  0.63606649    -0.16500
C578        C  0.01247837  0.54727575  0.65718806     0.02500
C579        C  0.00865877  0.52490031  0.77888664     0.12400
C580        C  0.01349339  0.47329323  0.73478038     0.63000
H581        H  0.02013462  0.48281707  0.64500480     0.12400
C582        C  0.01086422  0.57249995  0.63052080     0.55200
H583        H  0.00770365  0.56494641  0.72098575     0.08200
C584        C  0.03499247  0.54173132  0.80634773    -0.05600
C585        C  0.03105725  0.53798892  0.85278722    -0.06300
C586        C  0.00145121  0.51925597  0.87254760    -0.15900
C587        C  0.97461266  0.50567648  0.84477391    -0.01500
C588        C  0.97886592  0.50816852  0.79822805    -0.09000
C589        C  0.06691792  0.56389429  0.78651737     0.65200
H590        H  0.05137391  0.54939234  0.87398332     0.10700
C591        C  0.94159966  0.48939518  0.86359688     0.63600
H592        H  0.95890448  0.49656543  0.77637748     0.08100
F593        F  0.03667384  0.58724167  0.60283120    -0.19400
F594        F  0.01040052  0.59484744  0.65774003    -0.15600
F595        F  0.98402681  0.55946784  0.60514473    -0.19100
F596        F  0.98463105  0.45657884  0.75536091    -0.22500
F597        F  0.03656499  0.48446779  0.76677166    -0.24000
F598        F  0.01773629  0.45301259  0.70773542    -0.18000
F599        F  0.91975656  0.48450694  0.83119233    -0.20400
F600        F  0.93900147  0.50759490  0.89643874    -0.21600
F601        F  0.93440860  0.46071318  0.88112507    -0.18800
F602        F  0.08955171  0.57772681  0.81897208    -0.18900
F603        F  0.06544407  0.58730076  0.76333491    -0.22700
F604        F  0.07611706  0.54813378  0.75774954    -0.24300
C605        C  0.97982971  0.46066234  0.20706928    -0.11100
C606        C  0.00495925  0.48427606  0.23033730     0.11400
C607        C  0.03079136  0.50775036  0.20668216    -0.02900
C608        C  0.02934318  0.50826562  0.16002496    -0.05700
C609        C  0.00314801  0.48593717  0.13620209    -0.16500
C610        C  0.97827827  0.46085859  0.16025666     0.02500
C611        C  0.00307508  0.48449134  0.27962545     0.12400
C612        C  0.05970425  0.53218466  0.23074746     0.63000
H613        H  0.04872565  0.52674582  0.14187452     0.12400
C614        C  0.94987798  0.43458343  0.13760206     0.55200
H615        H  0.96083353  0.44253515  0.22630656     0.08200
C616        C  0.98790024  0.49856177  0.30178856    -0.05600
C617        C  0.98897960  0.50007570  0.34851077    -0.06300
C618        C  0.00435255  0.48770062  0.37350766    -0.15900
C619        C  0.01760047  0.47166953  0.35124315    -0.01500
C620        C  0.01679605  0.47047260  0.30440766    -0.09000
C621        C  0.97086204  0.51209169  0.27608830     0.65200
H622        H  0.97845006  0.51176352  0.36587427     0.10700
C623        C  0.03210062  0.45548392  0.37652375     0.63600
H624        H  0.02750148  0.45912514  0.28658515     0.08100
F625        F  0.93309087  0.44634123  0.11639461    -0.19400
F626        F  0.92993052  0.41213916  0.16765855    -0.15600
F627        F  0.95933198  0.41995401  0.10710515    -0.19100
F628        F  0.07295072  0.51773019  0.25439810    -0.22500
F629        F  0.05179846  0.54879483  0.25988533    -0.24000
F630        F  0.08206442  0.55318877  0.20148550    -0.18000
F631        F  0.01218267  0.43727264  0.41031431    -0.20400
F632        F  0.06033862  0.47747847  0.39441080    -0.21600
F633        F  0.03759240  0.43619721  0.34913650    -0.18800
F634        F  0.95749207  0.52446835  0.30412286    -0.18900
F635        F  0.94722389  0.48898343  0.25111351    -0.22700
F636        F  0.99143538  0.53558135  0.24794952    -0.24300
C637        C  0.94593205  0.59141397  0.03979175    -0.11100
C638        C  0.92507712  0.57822405  0.07571120     0.11400
C639        C  0.91909126  0.54926871  0.09371216    -0.02900
C640        C  0.93476500  0.53464611  0.07536900    -0.05700
C641        C  0.95653625  0.54839503  0.04057983    -0.16500
C642        C  0.96231737  0.57722220  0.02228750     0.02500
C643        C  0.90985981  0.59530014  0.09405042     0.12400
C644        C  0.89655246  0.53413842  0.13246618     0.63000
H645        H  0.93067269  0.51256648  0.08880194     0.12400
C646        C  0.98533834  0.59268043  0.98420406     0.55200
H647        H  0.94972825  0.61333711  0.02618264     0.08200
C648        C  0.92550540  0.62062257  0.12364295    -0.05600
C649        C  0.90921325  0.63495322  0.14088539    -0.06300
C650        C  0.87799827  0.62493699  0.12936125    -0.15900
C651        C  0.86252246  0.59969302  0.09906187    -0.01500
C652        C  0.87898978  0.58551667  0.08178555    -0.09000
C653        C  0.95936128  0.63261546  0.13654016     0.65200
H654        H  0.92098281  0.65448192  0.16338419     0.10700
C655        C  0.82914093  0.58800543  0.08395749     0.63600
H656        H  0.86782729  0.56636029  0.05854038     0.08100
F657        F  0.01538278  0.60250269  0.99871917    -0.19400
F658        F  0.98453279  0.61845095  0.96784463    -0.15600
F659        F  0.97825253  0.57175292  0.94967667    -0.19100
F660        F  0.86667970  0.52652311  0.11983249    -0.22500
F661        F  0.90553485  0.55447412  0.16801948    -0.24000
F662        F  0.89572526  0.50709745  0.14671374    -0.18000
F663        F  0.82650649  0.61230718  0.06578628    -0.20400
F664        F  0.80893514  0.57543927  0.11980179    -0.21600
F665        F  0.81990891  0.56500788  0.05191787    -0.18800
F666        F  0.96949153  0.65609001  0.16794544    -0.18900
F667        F  0.97839075  0.64450580  0.09942780    -0.22700
F668        F  0.96274936  0.60864735  0.15422180    -0.24300
C669        C  0.28864253  0.12423289  0.85733159    -0.11100
C670        C  0.31618736  0.14241296  0.88100577     0.11400
C671        C  0.34470228  0.16017949  0.85760784    -0.02900
C672        C  0.34431924  0.16022132  0.81075700    -0.05700
C673        C  0.31647700  0.14316104  0.78660690    -0.16500
C674        C  0.28796405  0.12446130  0.81049637     0.02500
C675        C  0.31418851  0.14330468  0.93036959     0.12400
C676        C  0.37531099  0.17944998  0.88209700     0.63000
H677        H  0.36593741  0.17408165  0.79256237     0.12400
C678        C  0.25659476  0.10544534  0.78755413     0.55200
H679        H  0.26736743  0.11031305  0.87624778     0.08200
C680        C  0.30313469  0.16145978  0.95190658    -0.05600
C681        C  0.30395692  0.16302307  0.99861037    -0.06300
C682        C  0.31521433  0.14699337  0.02432920    -0.15900
C683        C  0.32487243  0.12762424  0.00278584    -0.01500
C684        C  0.32386595  0.12592796  0.95595189    -0.09000
C685        C  0.29030824  0.17894859  0.92578601     0.65200
H686        H  0.29620168  0.17733602  0.01550581     0.10700
C687        C  0.33592377  0.10861858  0.02878950     0.63600
H688        H  0.33135175  0.11151841  0.93870911     0.08100
F689        F  0.23212525  0.09098374  0.81769027    -0.19400
F690        F  0.25695237  0.08241116  0.76191219    -0.15600
F691        F  0.25050390  0.12463997  0.76105116    -0.19100
F692        F  0.38196473  0.16011490  0.90732814    -0.22500
F693        F  0.37307693  0.20061496  0.90972840    -0.24000
F694        F  0.40011497  0.19592605  0.85309238    -0.18000
F695        F  0.33902632  0.08759046  0.00187387    -0.20400
F696        F  0.31462210  0.09186946  0.06205670    -0.21600
F697        F  0.36471887  0.12825887  0.04748735    -0.18800
F698        F  0.28395327  0.19773716  0.95297902    -0.18900
F699        F  0.26277869  0.15785282  0.90525763    -0.22700
F700        F  0.31168095  0.19777201  0.89383601    -0.24300
C701        C  0.30212854  0.15249253  0.44631075    -0.11100
C702        C  0.32267582  0.18214283  0.42919510     0.11400
C703        C  0.33909236  0.20749811  0.45842455    -0.02900
C704        C  0.33561468  0.20177831  0.50454433    -0.05700
C705        C  0.31628042  0.17168247  0.52199973    -0.16500
C706        C  0.29896667  0.14644368  0.49226374     0.02500
C707        C  0.32694647  0.18527351  0.38026617     0.12400
C708        C  0.36037761  0.24027548  0.44088808     0.63000
H709        H  0.34831180  0.22086271  0.52744457     0.12400
C710        C  0.27836698  0.11296662  0.50809358     0.55200
H711        H  0.28929979  0.13377584  0.42289582     0.08200
C712        C  0.34505502  0.17465784  0.35751731    -0.05600
C713        C  0.34550387  0.17525281  0.31081605    -0.06300
C714        C  0.32819599  0.18565826  0.28630804    -0.15900
C715        C  0.31127020  0.19771571  0.30934760    -0.01500
C716        C  0.31067103  0.19687057  0.35615687    -0.09000
C717        C  0.36321674  0.16202115  0.38241598     0.65200
H718        H  0.35832867  0.16609948  0.29304949     0.10700
C719        C  0.29386775  0.21143642  0.28522491     0.63600
H720        H  0.29664788  0.20442329  0.37442936     0.08100
F721        F  0.26669099  0.09219401  0.47298026    -0.19400
F722        F  0.25313081  0.11039663  0.53191275    -0.15600
F723        F  0.29550939  0.10409935  0.53453950    -0.19100
F724        F  0.34310319  0.25020166  0.41684434    -0.22500
F725        F  0.38318778  0.24062272  0.41359722    -0.24000
F726        F  0.37507667  0.26133518  0.47497602    -0.18000
F727        F  0.28493557  0.22751023  0.31396676    -0.20400
F728        F  0.26716501  0.18784336  0.26588233    -0.21600
F729        F  0.31289273  0.23218646  0.25278118    -0.18800
F730        F  0.38135033  0.15547596  0.35397473    -0.18900
F731        F  0.34280083  0.13475749  0.40444342    -0.22700
F732        F  0.38287378  0.18371032  0.41302456    -0.24300
C733        C  0.39010668  0.03107670  0.56341678    -0.11100
C734        C  0.40816630  0.06145179  0.57957537     0.11400
C735        C  0.44085041  0.07460388  0.58379258    -0.02900
C736        C  0.45461634  0.05720771  0.56916072    -0.05700
C737        C  0.43677809  0.02693893  0.55157781    -0.16500
C738        C  0.40368519  0.01339340  0.54912045     0.02500
C739        C  0.39169367  0.07836813  0.59288693     0.12400
C740        C  0.46103642  0.10662999  0.60419445     0.63000
H741        H  0.47965443  0.06713166  0.57213337     0.12400
C742        C  0.38246875  0.98074378  0.53133962     0.55200
H743        H  0.36500999  0.02139040  0.56200591     0.08200
C744        C  0.38130721  0.09236438  0.56107637    -0.05600
C745        C  0.36457192  0.10677802  0.57611866    -0.06300
C746        C  0.35841002  0.10770121  0.62145162    -0.15900
C747        C  0.36876377  0.09384963  0.65313976    -0.01500
C748        C  0.38487144  0.07879374  0.63817550    -0.09000
C749        C  0.38847777  0.09272731  0.51173767     0.65200
H750        H  0.35670829  0.11806343  0.55271924     0.10700
C751        C  0.36278631  0.09525734  0.70239567     0.63600
H752        H  0.39245209  0.06735263  0.66172093     0.08100
F753        F  0.35158751  0.97369960  0.52909095    -0.19400
F754        F  0.38357669  0.95898957  0.55909803    -0.15600
F755        F  0.39183184  0.97818663  0.48884469    -0.19100
F756        F  0.45253132  0.10627082  0.64816256    -0.22500
F757        F  0.45724405  0.12873486  0.58121285    -0.24000
F758        F  0.49248150  0.11558297  0.60310359    -0.18000
F759        F  0.33096131  0.08137141  0.71019535    -0.20400
F760        F  0.37705900  0.12603288  0.71596157    -0.21600
F761        F  0.37441600  0.08001456  0.72784735    -0.18800
F762        F  0.37622029  0.10767421  0.48686828    -0.18900
F763        F  0.37582196  0.06261977  0.49595675    -0.22700
F764        F  0.42047477  0.10820718  0.50504640    -0.24300
C765        C  0.05356558  0.41137409  0.96669067    -0.11100
C766        C  0.07848484  0.42714771  0.93679457     0.11400
C767        C  0.08795249  0.45810331  0.92381973    -0.02900
C768        C  0.07209756  0.47253958  0.94192809    -0.05700
C769        C  0.04639601  0.45650977  0.97073812    -0.16500
C770        C  0.03704615  0.42546192  0.98387164     0.02500
C771        C  0.09264277  0.40978703  0.91678024     0.12400
C772        C  0.11352287  0.47515572  0.88920154     0.63000
H773        H  0.07870675  0.49609182  0.93189820     0.12400
C774        C  0.01007669  0.40727803  0.01601595     0.55200
H775        H  0.04663783  0.38752578  0.97545000     0.08200
C776        C  0.11826614  0.40904188  0.93634244    -0.05600
C777        C  0.13205162  0.39431631  0.91302939    -0.06300
C778        C  0.11919032  0.37821016  0.87324815    -0.15900
C779        C  0.09184023  0.37663177  0.85586378    -0.01500
C780        C  0.07950371  0.39336077  0.87741747    -0.09000
C781        C  0.12987110  0.42232997  0.98239074     0.65200
H782        H  0.15225039  0.39411613  0.92663619     0.10700
C783        C  0.07582258  0.35746228  0.81494120     0.63600
H784        H  0.05918762  0.39346800  0.86411624     0.08100
F785        F  0.01409014  0.42475771  0.05386371    -0.19400
F786        F  0.00813109  0.37947333  0.02898288    -0.15600
F787        F  0.98215307  0.40023584  0.99597839    -0.19100
F788        F  0.10379899  0.46024864  0.84868659    -0.22500
F789        F  0.14060774  0.47545352  0.90162664    -0.24000
F790        F  0.12054723  0.50578848  0.88373237    -0.18000
F791        F  0.05115440  0.36136550  0.80157858    -0.20400
F792        F  0.06407723  0.32617053  0.82423270    -0.21600
F793        F  0.09697281  0.36627382  0.78008343    -0.18800
F794        F  0.15518432  0.41926721  0.99500344    -0.18900
F795        F  0.10612849  0.40651108  0.01311414    -0.22700
F796        F  0.13887091  0.45362400  0.98355392    -0.24300
C797        C  0.21053045  0.25454685  0.72906073    -0.11100
C798        C  0.23785062  0.25902277  0.74945560     0.11400
C799        C  0.25016198  0.27911644  0.78647462    -0.02900
C800        C  0.23352615  0.29322999  0.80319729    -0.05700
C801        C  0.20547660  0.28786071  0.78366915    -0.16500
C802        C  0.19399072  0.26868498  0.74542852     0.02500
C803        C  0.25248039  0.24166126  0.73109991     0.12400
C804        C  0.28079024  0.28581074  0.80762937     0.63000
H805        H  0.24226951  0.30859737  0.83167475     0.12400
C806        C  0.16537469  0.26432355  0.72054126     0.55200
H807        H  0.20219470  0.23958255  0.70012403     0.08200
C808        C  0.24091055  0.20996328  0.74196911    -0.05600
C809        C  0.25439646  0.19411643  0.72121718    -0.06300
C810        C  0.27909192  0.20897426  0.69056205    -0.15900
C811        C  0.29045286  0.24076243  0.67924624    -0.01500
C812        C  0.27656335  0.25650407  0.69966079    -0.09000
C813        C  0.21416439  0.19284541  0.77493249     0.65200
H814        H  0.24587985  0.16987994  0.72928937     0.10700
C815        C  0.31646801  0.25789298  0.64526460     0.63600
H816        H  0.28439251  0.28062603  0.69136323     0.08100
F817        F  0.15994890  0.24670305  0.68239086    -0.19400
F818        F  0.16981382  0.29309492  0.70792473    -0.15600
F819        F  0.13911435  0.24929863  0.74733267    -0.19100
F820        F  0.30483190  0.30037876  0.77699656    -0.22500
F821        F  0.27912721  0.25833777  0.82139721    -0.24000
F822        F  0.28792097  0.30509630  0.84426974    -0.18000
F823        F  0.30968121  0.24064044  0.60654803    -0.20400
F824        F  0.34451133  0.26265007  0.66223746    -0.21600
F825        F  0.32019149  0.28679082  0.63444027    -0.18800
F826        F  0.20878512  0.16311178  0.78406799    -0.18900
F827        F  0.18703772  0.19022722  0.75767797    -0.22700
F828        F  0.22089956  0.20894502  0.81463707    -0.24300
C829        C  0.48233088  0.50898833  0.69269672    -0.11100
C830        C  0.47843553  0.48134603  0.71155579     0.11400
C831        C  0.47438850  0.45670646  0.68352261    -0.02900
C832        C  0.47704892  0.46163398  0.63714669    -0.05700
C833        C  0.48302464  0.49012732  0.61781003    -0.16500
C834        C  0.48459098  0.51396589  0.64625993     0.02500
C835        C  0.48011063  0.47960666  0.76088354     0.12400
C836        C  0.46738383  0.42540621  0.70266111     0.63000
H837        H  0.47489204  0.44314779  0.61559561     0.12400
C838        C  0.48930577  0.54484799  0.62856932     0.55200
H839        H  0.48454769  0.52711896  0.71509618     0.08200
C840        C  0.50915849  0.49210917  0.78293522    -0.05600
C841        C  0.50936617  0.49102422  0.82963649    -0.06300
C842        C  0.48182012  0.47946061  0.85522553    -0.15900
C843        C  0.45257193  0.46547358  0.83299931    -0.01500
C844        C  0.45232572  0.46612608  0.78598157    -0.09000
C845        C  0.53996339  0.50765219  0.75737550     0.65200
H846        H  0.53154452  0.50089653  0.84668779     0.10700
C847        C  0.42180492  0.44871729  0.85828816     0.63600
H848        H  0.43037626  0.45648074  0.76831522     0.08100
F849        F  0.51761468  0.56065868  0.60626280    -0.19400
F850        F  0.48954575  0.56400476  0.66233272    -0.15600
F851        F  0.46515618  0.53949582  0.60015296    -0.19100
F852        F  0.43972010  0.41253183  0.72662319    -0.22500
F853        F  0.49121326  0.42916023  0.73053757    -0.24000
F854        F  0.46424890  0.40452770  0.66967693    -0.18000
F855        F  0.39679317  0.43224885  0.82998474    -0.20400
F856        F  0.41663386  0.46995951  0.88120610    -0.21600
F857        F  0.42254841  0.42768044  0.88795872    -0.18800
F858        F  0.56535506  0.51691121  0.78521949    -0.18900
F859        F  0.54346882  0.53383608  0.73555704    -0.22700
F860        F  0.54056130  0.48727418  0.72648734    -0.24300
C861        C  0.50354589  0.52806770  0.19346013    -0.11100
C862        C  0.52703344  0.52302931  0.21068067     0.11400
C863        C  0.54596517  0.51727131  0.18112981    -0.02900
C864        C  0.54057259  0.51675291  0.13505406    -0.05700
C865        C  0.51621331  0.52061495  0.11737208    -0.16500
C866        C  0.49770489  0.52712469  0.14739284     0.02500
C867        C  0.52854746  0.52052003  0.25999188     0.12400
C868        C  0.57112770  0.51072441  0.19817449     0.63000
H869        H  0.55477184  0.51190264  0.11250739     0.12400
C870        C  0.47173844  0.53291918  0.13184077     0.55200
H871        H  0.48903589  0.53181944  0.21696005     0.08200
C872        C  0.54275147  0.54692238  0.28812323    -0.05600
C873        C  0.54006472  0.54237328  0.33469507    -0.06300
C874        C  0.52328925  0.51244039  0.35385570    -0.15900
C875        C  0.50907381  0.48599682  0.32534276    -0.01500
C876        C  0.51217863  0.49066829  0.27893404    -0.09000
C877        C  0.55985536  0.57974718  0.26899300     0.65200
H878        H  0.55046515  0.56233848  0.35664098     0.10700
C879        C  0.48902647  0.45302876  0.34324947     0.63600
H880        H  0.50091357  0.47094227  0.25665006     0.08100
F881        F  0.48341974  0.55680514  0.10079461    -0.19400
F882        F  0.45908593  0.54152014  0.16656301    -0.15600
F883        F  0.44777526  0.50611163  0.11333987    -0.19100
F884        F  0.55768876  0.48389182  0.22378197    -0.22500
F885        F  0.59232476  0.53533967  0.22376281    -0.24000
F886        F  0.58745398  0.50658155  0.16374631    -0.18000
F887        F  0.46544278  0.45162100  0.36993186    -0.20400
F888        F  0.50722718  0.44437821  0.36757872    -0.21600
F889        F  0.47509600  0.43146099  0.30948405    -0.18800
F890        F  0.57323201  0.60204499  0.30196744    -0.18900
F891        F  0.53919947  0.58555931  0.24566813    -0.22700
F892        F  0.58341033  0.58304347  0.24056222    -0.24300
C893        C  0.85846215  0.20911804  0.96732549    -0.11100
C894        C  0.85114502  0.18281167  0.94161612     0.11400
C895        C  0.84189608  0.15385213  0.96258923    -0.02900
C896        C  0.83936147  0.15208095  0.00920283    -0.05700
C897        C  0.84593881  0.17824532  0.03531129    -0.16500
C898        C  0.85590274  0.20746747  0.01400499     0.02500
C899        C  0.85384990  0.18637834  0.89260202     0.12400
C900        C  0.83487387  0.12501566  0.93581970     0.63000
H901        H  0.83190787  0.12996075  0.02564146     0.12400
C902        C  0.86439908  0.23701399  0.03985912     0.55200
H903        H  0.86603350  0.23104265  0.95021803     0.08200
C904        C  0.82981206  0.18574289  0.86650941    -0.05600
C905        C  0.83253202  0.18567071  0.82001094    -0.06300
C906        C  0.85897146  0.18746757  0.79882065    -0.15900
C907        C  0.88446981  0.19136786  0.82549666    -0.01500
C908        C  0.88111988  0.19032725  0.87210361    -0.09000
C909        C  0.80165652  0.18554443  0.88768876     0.65200
H910        H  0.81354747  0.18381167  0.79987373     0.10700
C911        C  0.91524117  0.19699246  0.80569460     0.63600
H912        H  0.89962731  0.19198131  0.89322236     0.08100
F913        F  0.83791672  0.23457614  0.05971442    -0.19400
F914        F  0.87713803  0.26312507  0.01261656    -0.15600
F915        F  0.88626999  0.24167463  0.07202938    -0.19100
F916        F  0.86152113  0.12992421  0.91348818    -0.22500
F917        F  0.81160171  0.11870100  0.90526285    -0.24000
F918        F  0.82496208  0.09895204  0.96266895    -0.18000
F919        F  0.92645050  0.22158824  0.77582362    -0.20400
F920        F  0.91105052  0.17041176  0.78439721    -0.21600
F921        F  0.93782645  0.20457723  0.83798874    -0.18800
F922        F  0.78020959  0.18329420  0.85622417    -0.18900
F923        F  0.81142037  0.21296652  0.91090606    -0.22700
F924        F  0.78662393  0.16057663  0.91663169    -0.24300
C925        C  0.80949866  0.12217860  0.36916590    -0.11100
C926        C  0.82816510  0.14954645  0.39312339     0.11400
C927        C  0.84520107  0.17841496  0.37059127    -0.02900
C928        C  0.84241823  0.17896102  0.32423156    -0.05700
C929        C  0.82415145  0.15156352  0.29996639    -0.16500
C930        C  0.80719908  0.12262286  0.32256256     0.02500
C931        C  0.82929068  0.14758673  0.44207442     0.12400
C932        C  0.86693120  0.20829817  0.39529885     0.63000
H933        H  0.85552196  0.20077216  0.30626219     0.12400
C934        C  0.78633998  0.09254538  0.29788606     0.55200
H935        H  0.79687924  0.10042427  0.38739181     0.08200
C936        C  0.80771571  0.15053974  0.46960941    -0.05600
C937        C  0.81269655  0.15293137  0.51568911    -0.06300
C938        C  0.83795607  0.15151736  0.53517443    -0.15900
C939        C  0.85790172  0.14559101  0.50731258    -0.01500
C940        C  0.85326247  0.14411178  0.46097070    -0.09000
C941        C  0.77949970  0.15098653  0.45021932     0.65200
H942        H  0.79684114  0.15637627  0.53676920     0.10700
C943        C  0.88387543  0.14071477  0.52549143     0.63600
H944        H  0.86887496  0.14105476  0.43874684     0.08100
F945        F  0.76634655  0.09661834  0.27013958    -0.19400
F946        F  0.76828271  0.06827336  0.32682348    -0.15600
F947        F  0.80445199  0.08401725  0.27286303    -0.19100
F948        F  0.89079428  0.20548731  0.41462538    -0.22500
F949        F  0.85075221  0.21399321  0.42818256    -0.24000
F950        F  0.88025141  0.23392891  0.36714844    -0.18000
F951        F  0.87189080  0.11739560  0.55738131    -0.20400
F952        F  0.90707002  0.16806999  0.54389281    -0.21600
F953        F  0.89753673  0.13178880  0.49258063    -0.18800
F954        F  0.76168402  0.15467084  0.48279998    -0.18900
F955        F  0.76071569  0.12312099  0.42868169    -0.22700
F956        F  0.78891535  0.17520811  0.42008463    -0.24300
C957        C  0.11936388  0.31622765  0.62591678    -0.11100
C958        C  0.14609313  0.33590751  0.60100398     0.11400
C959        C  0.17323201  0.35850966  0.62306325    -0.02900
C960        C  0.17336892  0.35911331  0.66995393    -0.05700
C961        C  0.14724368  0.33804716  0.69553816    -0.16500
C962        C  0.11926718  0.31671842  0.67285390     0.02500
C963        C  0.14510650  0.33218060  0.55171385     0.12400
C964        C  0.20196492  0.38178643  0.59700255     0.63000
H965        H  0.19445938  0.37565197  0.68696551     0.12400
C966        C  0.08932200  0.29416548  0.69725410     0.55200
H967        H  0.09869330  0.29970140  0.60801388     0.08200
C968        C  0.15074653  0.30979054  0.53087405    -0.05600
C969        C  0.15218339  0.30946299  0.48407776    -0.06300
C970        C  0.14814488  0.33066668  0.45737991    -0.15900
C971        C  0.14005347  0.35149259  0.47861376    -0.01500
C972        C  0.13875095  0.35177815  0.52551656    -0.09000
C973        C  0.15567307  0.28663525  0.55802986     0.65200
H974        H  0.15755376  0.29308025  0.46807021     0.10700
C975        C  0.13281894  0.37348914  0.45264232     0.63600
H976        H  0.13359674  0.36805006  0.54241690     0.08100
F977        F  0.09306113  0.27134173  0.71825059    -0.19400
F978        F  0.06425070  0.27938243  0.66856700    -0.15600
F979        F  0.08182150  0.31010244  0.72822854    -0.19100
F980        F  0.19462762  0.40043133  0.57129366    -0.22500
F981        F  0.21221955  0.36625276  0.56953854    -0.24000
F982        F  0.22636255  0.40099110  0.62471524    -0.18000
F983        F  0.11076671  0.35713163  0.42034608    -0.20400
F984        F  0.15984803  0.39671949  0.43299040    -0.21600
F985        F  0.12082985  0.38769226  0.47977874    -0.18800
F986        F  0.16093142  0.26691238  0.53124112    -0.18900
F987        F  0.12944015  0.26843049  0.58372898    -0.22700
F988        F  0.18119262  0.30235799  0.58558173    -0.24300
C989        C  0.20523238  0.35591618  0.12172168    -0.11100
C990        C  0.18394743  0.32803718  0.10068525     0.11400
C991        C  0.16507144  0.30117594  0.12671891    -0.02900
C992        C  0.16640767  0.30387433  0.17341341    -0.05700
C993        C  0.18597238  0.33239875  0.19465360    -0.16500
C994        C  0.20664546  0.35863943  0.16847292     0.02500
C995        C  0.18081843  0.32817869  0.05144474     0.12400
C996        C  0.14335673  0.26994213  0.10520610     0.63000
H997        H  0.15111795  0.28386472  0.19375377     0.12400
C998        C  0.23023898  0.38929538  0.18950726     0.55200
H999        H  0.21995691  0.37595610  0.10104420     0.08200
C1000       C  0.16073664  0.33743128  0.03137564    -0.05600
C1001       C  0.15842204  0.33676203  0.98470157    -0.06300
C1002       C  0.17608331  0.32804412  0.95781533    -0.15900
C1003       C  0.19646165  0.31922659  0.97763643    -0.01500
C1004       C  0.19852929  0.31942953  0.02448071    -0.09000
C1005       C  0.14242312  0.34868565  0.05910719     0.65200
H1006       H  0.14311961  0.34359473  0.96862807     0.10700
C1007       C  0.21537682  0.30924795  0.94914443     0.63600
H1008       H  0.21395591  0.31274127  0.04048466     0.08100
F1009       F  0.21504009  0.40386624  0.20756418    -0.19400
F1010       F  0.25183657  0.40938219  0.15863185    -0.15600
F1011       F  0.24643739  0.38391798  0.22257301    -0.19100
F1012       F  0.16051616  0.26106880  0.07863887    -0.22500
F1013       F  0.12144926  0.27211860  0.07928860    -0.24000
F1014       F  0.12750423  0.24671939  0.13659728    -0.18000
F1015       F  0.23546330  0.33365824  0.92182133    -0.20400
F1016       F  0.19546601  0.28412916  0.92308807    -0.21600
F1017       F  0.23301319  0.30048541  0.97472266    -0.18800
F1018       F  0.12339296  0.35532367  0.03303078    -0.18900
F1019       F  0.16292761  0.37554299  0.08152361    -0.22700
F1020       F  0.12361378  0.32618088  0.08973697    -0.24300
C1021       C  0.96898339  0.26238534  0.23246606    -0.11100
C1022       C  0.98608762  0.24677161  0.23391630     0.11400
C1023       C  0.97291085  0.21617027  0.21698936    -0.02900
C1024       C  0.94255906  0.20198822  0.19941818    -0.05700
C1025       C  0.92475157  0.21715387  0.19855195    -0.16500
C1026       C  0.93857328  0.24837343  0.21469416     0.02500
C1027       C  0.01823999  0.26335725  0.25223471     0.12400
C1028       C  0.99065363  0.19833406  0.21823142     0.63000
H1029       H  0.93224541  0.17835095  0.18715903     0.12400
C1030       C  0.92177716  0.26712487  0.21380564     0.55200
H1031       H  0.97980044  0.28580200  0.24576566     0.08200
C1032       C  0.04390990  0.28573402  0.22681021    -0.05600
C1033       C  0.07401081  0.29908251  0.24509842    -0.06300
C1034       C  0.07904302  0.29052078  0.28743294    -0.15900
C1035       C  0.05338992  0.26854047  0.31317231    -0.01500
C1036       C  0.02316257  0.25552136  0.29518351    -0.09000
C1037       C  0.03952043  0.29570696  0.18081297     0.65200
H1038       H  0.09401568  0.31627799  0.22630048     0.10700
C1039       C  0.05796800  0.25933293  0.35953138     0.63600
H1040       H  0.00309697  0.23863900  0.31416421     0.08100
F1041       F  0.91363147  0.26943350  0.17056075    -0.19400
F1042       F  0.94036564  0.29716077  0.22951287    -0.15600
F1043       F  0.89529618  0.25287171  0.24038094    -0.19100
F1044       F  0.99393126  0.19156961  0.26183760    -0.22500
F1045       F  0.01995855  0.21597048  0.19920806    -0.24000
F1046       F  0.97523463  0.17048932  0.19520562    -0.18000
F1047       F  0.02973655  0.23994578  0.38049011    -0.20400
F1048       F  0.07424874  0.28572204  0.38537517    -0.21600
F1049       F  0.07462965  0.24368942  0.35698845    -0.18800
F1050       F  0.06783508  0.31413855  0.15943121    -0.18900
F1051       F  0.02429708  0.31270856  0.18456813    -0.22700
F1052       F  0.02200078  0.26987690  0.15449028    -0.24300
C1053       C  0.36564825  0.40504417  0.42825944    -0.11100
C1054       C  0.35269700  0.42274827  0.41242370     0.11400
C1055       C  0.36985219  0.45558835  0.41529455    -0.02900
C1056       C  0.40055086  0.46981573  0.43147752    -0.05700
C1057       C  0.41416803  0.45234159  0.44678654    -0.16500
C1058       C  0.39603262  0.41912908  0.44604596     0.02500
C1059       C  0.32036090  0.40609106  0.39507471     0.12400
C1060       C  0.35539960  0.47544460  0.40273262     0.63000
H1061       H  0.41403774  0.49501716  0.43273405     0.12400
C1062       C  0.40787854  0.39833022  0.46465303     0.55200
H1063       H  0.35145919  0.37987174  0.42671718     0.08200
C1064       C  0.31360320  0.39545234  0.35056537    -0.05600
C1065       C  0.28222058  0.37996288  0.33663631    -0.06300
C1066       C  0.25797179  0.37505985  0.36587936    -0.15900
C1067       C  0.26477809  0.38542616  0.41046442    -0.01500
C1068       C  0.29602973  0.40065819  0.42440841    -0.09000
C1069       C  0.33942918  0.40046045  0.31817336     0.65200
H1070       H  0.27634044  0.37169915  0.30275059     0.10700
C1071       C  0.23902346  0.37958422  0.44342533     0.63600
H1072       H  0.30184019  0.40853455  0.45846618     0.08100
F1073       F  0.43272337  0.40138989  0.43929319    -0.19400
F1074       F  0.38500617  0.36714181  0.46439202    -0.15600
F1075       F  0.41719120  0.40644384  0.50828492    -0.19100
F1076       F  0.33123976  0.46937642  0.43187648    -0.22500
F1077       F  0.34380537  0.46874201  0.35994252    -0.24000
F1078       F  0.37690122  0.50701639  0.40469574    -0.18000
F1079       F  0.21941191  0.34782412  0.44829261    -0.20400
F1080       F  0.22209007  0.39310923  0.42828358    -0.21600
F1081       F  0.25075808  0.39192399  0.48489205    -0.18800
F1082       F  0.32787451  0.38933341  0.27616922    -0.18900
F1083       F  0.35450574  0.38501241  0.33328300    -0.22700
F1084       F  0.36088365  0.43191409  0.31439448    -0.24300
C1085       C  0.52262262  0.96956677  0.81321997    -0.11100
C1086       C  0.51047674  0.98598802  0.79080981     0.11400
C1087       C  0.49920988  0.00282513  0.81521187    -0.02900
C1088       C  0.50157974  0.00350719  0.86183290    -0.05700
C1089       C  0.51292512  0.98634012  0.88484094    -0.16500
C1090       C  0.52359653  0.96890145  0.86000616     0.02500
C1091       C  0.50786513  0.98330863  0.74174590     0.12400
C1092       C  0.48292925  0.01828621  0.79232604     0.63000
H1093       H  0.49273081  0.01608084  0.88083865     0.12400
C1094       C  0.53542862  0.94914962  0.88212594     0.55200
H1095       H  0.53037259  0.95633191  0.79350283     0.08200
C1096       C  0.53154738  0.00495314  0.71321730    -0.05600
C1097       C  0.52591801  0.00263175  0.66720758    -0.06300
C1098       C  0.49835728  0.97816362  0.64871256    -0.15900
C1099       C  0.47648813  0.95414630  0.67751448    -0.01500
C1100       C  0.48131290  0.95785053  0.72376411    -0.09000
C1101       C  0.56297399  0.02959607  0.73128593     0.65200
H1102       H  0.54335912  0.02004620  0.64530480     0.10700
C1103       C  0.44855077  0.92443355  0.66040689     0.63600
H1104       H  0.46428347  0.94084919  0.74659936     0.08100
F1105       F  0.55811462  0.96674468  0.91302929    -0.19400
F1106       F  0.54852883  0.93792936  0.85163086    -0.15600
F1107       F  0.51085045  0.92372298  0.90288071    -0.19100
F1108       F  0.45594331  0.99573002  0.77220223    -0.22500
F1109       F  0.50214872  0.03918545  0.76029353    -0.24000
F1110       F  0.47473988  0.03439788  0.82211369    -0.18000
F1111       F  0.43290566  0.90325852  0.69434452    -0.20400
F1112       F  0.45858324  0.91007740  0.63026724    -0.21600
F1113       F  0.42748832  0.93125031  0.64029557    -0.18800
F1114       F  0.58289047  0.04820000  0.69774743    -0.18900
F1115       F  0.57708204  0.01511545  0.75274003    -0.22700
F1116       F  0.55919507  0.04868937  0.76116725    -0.24300
C1117       C  0.47814294  0.95697378  0.22457837    -0.11100
C1118       C  0.46857162  0.97733404  0.24131485     0.11400
C1119       C  0.46224958  0.99566206  0.21161294    -0.02900
C1120       C  0.46594473  0.99299786  0.16568643    -0.05700
C1121       C  0.47616909  0.97306011  0.14852567    -0.16500
C1122       C  0.48183849  0.95413668  0.17863865     0.02500
C1123       C  0.46854543  0.98103966  0.29035752     0.12400
C1124       C  0.45219373  0.01835084  0.22836710     0.63000
H1125       H  0.46145080  0.00717414  0.14273231     0.12400
C1126       C  0.49262845  0.93169666  0.16328659     0.55200
H1127       H  0.48342443  0.94375359  0.24828165     0.08200
C1128       C  0.44448522  0.95896039  0.31813205    -0.05600
C1129       C  0.44769703  0.96300804  0.36454788    -0.06300
C1130       C  0.47439894  0.98793588  0.38412024    -0.15900
C1131       C  0.49828075  0.01044930  0.35568117    -0.01500
C1132       C  0.49480766  0.00624368  0.30933033    -0.09000
C1133       C  0.41589652  0.93089157  0.29884270     0.65200
H1134       H  0.42952472  0.94594905  0.38599232     0.10700
C1135       C  0.52776591  0.03850524  0.37319202     0.63600
H1136       H  0.51309064  0.02234728  0.28706767     0.08100
F1137       F  0.49757016  0.91670528  0.19863523    -0.19400
F1138       F  0.52049057  0.94776591  0.14004791    -0.15600
F1139       F  0.47012109  0.90899024  0.13643597    -0.19100
F1140       F  0.47569364  0.04136234  0.25359514    -0.22500
F1141       F  0.42552039  0.00270688  0.25422118    -0.24000
F1142       F  0.44574375  0.03273567  0.19374040    -0.18000
F1143       F  0.54687650  0.05739255  0.33918009    -0.20400
F1144       F  0.54493084  0.02863209  0.39769276    -0.21600
F1145       F  0.51983468  0.05654164  0.39938885    -0.18800
F1146       F  0.39454302  0.91310259  0.33156954    -0.18900
F1147       F  0.42475083  0.91201187  0.27668235    -0.22700
F1148       F  0.40106910  0.94064786  0.26935526    -0.24300
C1149       C  0.68596614  0.09200580  0.14612727    -0.11100
C1150       C  0.67948466  0.07030495  0.11198227     0.11400
C1151       C  0.70413833  0.06748726  0.09253910    -0.02900
C1152       C  0.73465376  0.08648885  0.10835189    -0.05700
C1153       C  0.74146584  0.10892914  0.14157636    -0.16500
C1154       C  0.71668658  0.11158944  0.16134644     0.02500
C1155       C  0.64721053  0.05312509  0.09409451     0.12400
C1156       C  0.69843814  0.04530648  0.05414510     0.63000
H1157       H  0.75380517  0.08488297  0.09332865     0.12400
C1158       C  0.72240109  0.13480251  0.19821420     0.55200
H1159       H  0.66675827  0.09414034  0.15979615     0.08200
C1160       C  0.62310312  0.02574536  0.11432656    -0.05600
C1161       C  0.59330546  0.01088668  0.09453865    -0.06300
C1162       C  0.58699904  0.02285330  0.05596588    -0.15900
C1163       C  0.61134669  0.04996939  0.03548381    -0.01500
C1164       C  0.64095951  0.06494624  0.05550018    -0.09000
C1165       C  0.62875698  0.01255262  0.15672274     0.65200
H1166       H  0.57442252  0.99016340  0.10970300     0.10700
C1167       C  0.60657574  0.06224014  0.99162561     0.63600
H1168       H  0.65977471  0.08605191  0.04090353     0.08100
F1169       F  0.69469058  0.13008332  0.21703988    -0.19400
F1170       F  0.73813735  0.16481672  0.18128325    -0.15600
F1171       F  0.73996322  0.13182961  0.23159657    -0.19100
F1172       F  0.68876429  0.05480064  0.01717479    -0.22500
F1173       F  0.67566193  0.01540044  0.06565966    -0.24000
F1174       F  0.72520956  0.04446403  0.04256499    -0.18000
F1175       F  0.58614495  0.07347175  0.99730306    -0.20400
F1176       F  0.59455664  0.03847524  0.96060478    -0.21600
F1177       F  0.63436413  0.08628564  0.97480134    -0.18800
F1178       F  0.60221920  0.98560259  0.17053430    -0.18900
F1179       F  0.63748708  0.03418636  0.19054952    -0.22700
F1180       F  0.65226426  0.00548533  0.14985914    -0.24300
C1181       C  0.16598700  0.85484015  0.53949537    -0.11100
C1182       C  0.18851338  0.84870521  0.55732443     0.11400
C1183       C  0.20772458  0.84284007  0.52857444    -0.02900
C1184       C  0.20396929  0.84384752  0.48229492    -0.05700
C1185       C  0.18102052  0.84955823  0.46389445    -0.16500
C1186       C  0.16178750  0.85556462  0.49332736     0.02500
C1187       C  0.18955555  0.84626424  0.60647303     0.12400
C1188       C  0.23133865  0.83453764  0.54685387     0.63000
H1189       H  0.21837002  0.83899274  0.46013677     0.12400
C1190       C  0.13653662  0.86230114  0.47710749     0.55200
H1191       H  0.15111775  0.85841791  0.56255574     0.08200
C1192       C  0.20423042  0.87281492  0.63413791    -0.05600
C1193       C  0.20266352  0.86846099  0.68054802    -0.06300
C1194       C  0.18615653  0.83863554  0.70009034    -0.15900
C1195       C  0.17085539  0.81202654  0.67201901    -0.01500
C1196       C  0.17313207  0.81649962  0.62560435    -0.09000
C1197       C  0.22092930  0.90560224  0.61476930     0.65200
H1198       H  0.21375675  0.88857676  0.70212739     0.10700
C1199       C  0.15082986  0.77914770  0.69027606     0.63600
H1200       H  0.16136169  0.79673272  0.60351315     0.08100
F1201       F  0.12284268  0.86979597  0.51169949    -0.19400
F1202       F  0.11308540  0.83624819  0.45625125    -0.15600
F1203       F  0.14936523  0.88735820  0.44796669    -0.19100
F1204       F  0.21590085  0.80634349  0.56921082    -0.22500
F1205       F  0.25132743  0.85734407  0.57594222    -0.24000
F1206       F  0.24922239  0.83182167  0.51341577    -0.18000
F1207       F  0.13644340  0.75746526  0.65675392    -0.20400
F1208       F  0.12756766  0.77793151  0.71752306    -0.21600
F1209       F  0.16921698  0.77046962  0.71408112    -0.18800
F1210       F  0.23393260  0.92807984  0.64758198    -0.18900
F1211       F  0.20008353  0.91101973  0.59122281    -0.22700
F1212       F  0.24466371  0.90908978  0.58654593    -0.24300
C1213       C  0.11801856  0.80760859  0.13237410    -0.11100
C1214       C  0.14478335  0.82216398  0.10539705     0.11400
C1215       C  0.17464117  0.83876421  0.12514085    -0.02900
C1216       C  0.17681376  0.83874693  0.17173059    -0.05700
C1217       C  0.15013124  0.82422647  0.19917786    -0.16500
C1218       C  0.12002139  0.80863141  0.17919126     0.02500
C1219       C  0.14112549  0.82007372  0.05632289     0.12400
C1220       C  0.20399958  0.85720232  0.09706810     0.63000
H1221       H  0.19955288  0.85109283  0.18718469     0.12400
C1222       C  0.09006615  0.79293489  0.20659326     0.55200
H1223       H  0.09546310  0.79569837  0.11624148     0.08200
C1224       C  0.14059404  0.79541199  0.03198487    -0.05600
C1225       C  0.14280377  0.79774594  0.98534106    -0.06300
C1226       C  0.14442877  0.82338969  0.96233609    -0.15900
C1227       C  0.14087355  0.84610250  0.98699080    -0.01500
C1228       C  0.13977748  0.84414698  0.03378950    -0.09000
C1229       C  0.13785252  0.76690135  0.05539210     0.65200
H1230       H  0.14410842  0.77973001  0.96664444     0.10700
C1231       C  0.13828443  0.87239520  0.96488809     0.63600
H1232       H  0.13899959  0.86210336  0.05345138     0.08100
F1233       F  0.06400505  0.77592674  0.18030413    -0.19400
F1234       F  0.08610499  0.81526169  0.22868549    -0.15600
F1235       F  0.09135726  0.77267001  0.23712044    -0.19100
F1236       F  0.20213326  0.88046851  0.07411418    -0.22500
F1237       F  0.20712105  0.83781167  0.06693770    -0.24000
F1238       F  0.23070328  0.87116669  0.12285388    -0.18000
F1239       F  0.13004817  0.88826965  0.99503755    -0.20400
F1240       F  0.11542824  0.86037146  0.93250462    -0.21600
F1241       F  0.16665332  0.89370143  0.94604546    -0.18800
F1242       F  0.13716293  0.74526544  0.02552856    -0.18900
F1243       F  0.11048116  0.75259698  0.08007694    -0.22700
F1244       F  0.16293896  0.77552506  0.08348158    -0.24300
C1245       C  0.29555873  0.90558232  0.93073111    -0.11100
C1246       C  0.31669607  0.89674996  0.91488390     0.11400
C1247       C  0.30727438  0.87367477  0.88144448    -0.02900
C1248       C  0.27692839  0.86100113  0.86358911    -0.05700
C1249       C  0.25604838  0.87077464  0.87821518    -0.16500
C1250       C  0.26531307  0.89304360  0.91315208     0.02500
C1251       C  0.34836140  0.91180189  0.93500666     0.12400
C1252       C  0.32926551  0.86261398  0.86492263     0.63000
H1253       H  0.26936054  0.84353388  0.83770161     0.12400
C1254       C  0.24311045  0.90265722  0.93349680     0.55200
H1255       H  0.30317297  0.92266346  0.95717605     0.08200
C1256       C  0.37234259  0.94162930  0.92117827    -0.05600
C1257       C  0.40168858  0.95453208  0.94191724    -0.06300
C1258       C  0.40761180  0.93872320  0.97604067    -0.15900
C1259       C  0.38318844  0.90935481  0.99097309    -0.01500
C1260       C  0.35381443  0.89646547  0.97016492    -0.09000
C1261       C  0.36683038  0.95982992  0.88498174     0.65200
H1262       H  0.42049759  0.97705981  0.93115040     0.10700
C1263       C  0.38776717  0.89203736  0.02933031     0.63600
H1264       H  0.33478248  0.87407502  0.98094312     0.08100
F1265       F  0.23619832  0.91913888  0.90278778    -0.19400
F1266       F  0.25583259  0.92152716  0.97036104    -0.15600
F1267       F  0.21593156  0.87640095  0.94704580    -0.19100
F1268       F  0.33710325  0.84953201  0.89968650    -0.22500
F1269       F  0.35624050  0.88747835  0.84777919    -0.24000
F1270       F  0.31579216  0.84038827  0.83189033    -0.18000
F1271       F  0.35984932  0.86646322  0.04270091    -0.20400
F1272       F  0.40014667  0.91169865  0.06548505    -0.21600
F1273       F  0.40783034  0.88146999  0.01656586    -0.18800
F1274       F  0.39374480  0.98756385  0.87489556    -0.18900
F1275       F  0.34431913  0.96687897  0.89890642    -0.22700
F1276       F  0.35679201  0.94236825  0.84649883    -0.24300
C1277       C  0.80732698  0.65674655  0.87407595    -0.11100
C1278       C  0.82524621  0.68633211  0.89300427     0.11400
C1279       C  0.83999379  0.71299143  0.86521532    -0.02900
C1280       C  0.83632895  0.70896811  0.81892016    -0.05700
C1281       C  0.81916017  0.67925116  0.79964472    -0.16500
C1282       C  0.80374251  0.65261275  0.82774738     0.02500
C1283       C  0.82851740  0.68838490  0.94214760     0.12400
C1284       C  0.86029700  0.74544215  0.88418079     0.63000
H1285       H  0.84836898  0.72907489  0.79724458     0.12400
C1286       C  0.78364995  0.61990475  0.80951675     0.55200
H1287       H  0.79668667  0.63669418  0.89608774     0.08200
C1288       C  0.80388355  0.68465422  0.97048261    -0.05600
C1289       C  0.80794937  0.68485087  0.01681498    -0.06300
C1290       C  0.83600250  0.68938812  0.03534637    -0.15900
C1291       C  0.86110999  0.69429623  0.00680085    -0.01500
C1292       C  0.85659030  0.69309833  0.96051486    -0.09000
C1293       C  0.77323479  0.67986209  0.95182756     0.65200
H1294       H  0.78898963  0.68100643  0.03902827     0.10700
C1295       C  0.89217712  0.69972593  0.02478884     0.63600
H1296       H  0.87488967  0.69549600  0.93804897     0.08100
F1297       F  0.76555555  0.59905596  0.84254587    -0.19400
F1298       F  0.80250601  0.60943155  0.79118501    -0.15600
F1299       F  0.76360598  0.61987688  0.77743337    -0.19100
F1300       F  0.88716924  0.74778743  0.90199595    -0.22500
F1301       F  0.84418690  0.75123470  0.91708821    -0.24000
F1302       F  0.86909777  0.76833898  0.85187775    -0.18000
F1303       F  0.91235852  0.70175787  0.99110868    -0.20400
F1304       F  0.88732820  0.67534497  0.05243827    -0.21600
F1305       F  0.90664983  0.72740063  0.04824356    -0.18800
F1306       F  0.75465422  0.68211673  0.98459759    -0.18900
F1307       F  0.75683242  0.65061029  0.93290024    -0.22700
F1308       F  0.77890894  0.70221889  0.91981420    -0.24300
C1309       C  0.84910141  0.65041274  0.46727300    -0.11100
C1310       C  0.85403012  0.67633312  0.44229196     0.11400
C1311       C  0.85846251  0.70353932  0.46415667    -0.02900
C1312       C  0.85716531  0.70354406  0.51096248    -0.05700
C1313       C  0.85121265  0.67718850  0.53650603    -0.16500
C1314       C  0.84790705  0.65022991  0.51406940     0.02500
C1315       C  0.85170083  0.67312993  0.39314691     0.12400
C1316       C  0.86381062  0.73216741  0.43806404     0.63000
H1317       H  0.85994005  0.72407502  0.52787116     0.12400
C1318       C  0.84256425  0.62094528  0.53839311     0.55200
H1319       H  0.84541307  0.62986716  0.44936816     0.08200
C1320       C  0.87712439  0.67764199  0.36603122    -0.05600
C1321       C  0.87327414  0.67568296  0.31952432    -0.06300
C1322       C  0.84442040  0.66760444  0.29977128    -0.15900
C1323       C  0.81826363  0.66066741  0.32749561    -0.01500
C1324       C  0.82261029  0.66391872  0.37382829    -0.09000
C1325       C  0.90785032  0.68382337  0.38625142     0.65200
H1326       H  0.89283186  0.68028250  0.29808905     0.10700
C1327       C  0.78608252  0.65071478  0.30872699     0.63600
H1328       H  0.80328463  0.65947298  0.39567629     0.08100
F1329       F  0.86677169  0.62833537  0.56777262    -0.19400
F1330       F  0.84152223  0.59863753  0.50952033    -0.15600
F1331       F  0.81435230  0.60767975  0.56111026    -0.19100
F1332       F  0.83807848  0.72489058  0.41196922    -0.22500
F1333       F  0.88983192  0.74245148  0.41095661    -0.24000
F1334       F  0.86861572  0.75649783  0.46579058    -0.18000
F1335       F  0.77482701  0.62257173  0.28684320    -0.20400
F1336       F  0.78781007  0.67314023  0.27951066    -0.21600
F1337       F  0.76471686  0.64673473  0.34175614    -0.18800
F1338       F  0.92980123  0.68828702  0.35393802    -0.18900
F1339       F  0.90287978  0.65859933  0.41210826    -0.22700
F1340       F  0.92010887  0.71015332  0.41257926    -0.24300
C1341       C  0.70424476  0.63333105  0.57564736    -0.11100
C1342       C  0.68237123  0.60435344  0.59346444     0.11400
C1343       C  0.69086454  0.59154829  0.62929636    -0.02900
C1344       C  0.72147127  0.60843673  0.64607514    -0.05700
C1345       C  0.74355317  0.63756125  0.62831622    -0.16500
C1346       C  0.73476234  0.65044107  0.59253998     0.02500
C1347       C  0.65128526  0.58723432  0.57195747     0.12400
C1348       C  0.66781432  0.56001194  0.64923182     0.63000
H1349       H  0.72853724  0.59882495  0.67308435     0.12400
C1350       C  0.75753328  0.68146065  0.57090557     0.55200
H1351       H  0.69714402  0.64226743  0.54782515     0.08200
C1352       C  0.62701177  0.59371786  0.58164965    -0.05600
C1353       C  0.59810819  0.57615931  0.56016570    -0.06300
C1354       C  0.59298207  0.55279328  0.52912969    -0.15900
C1355       C  0.61786902  0.54735777  0.51808139    -0.01500
C1356       C  0.64670689  0.56485109  0.53978965    -0.09000
C1357       C  0.63177010  0.61926621  0.61411875     0.65200
H1358       H  0.57904826  0.58034304  0.56793290     0.10700
C1359       C  0.61440543  0.52375810  0.48303566     0.63600
H1360       H  0.66600173  0.56098143  0.53219411     0.08100
F1361       F  0.76578449  0.70536831  0.60108242    -0.19400
F1362       F  0.74469462  0.68785891  0.53428270    -0.15600
F1363       F  0.78398397  0.68096387  0.55667330    -0.19100
F1364       F  0.65947519  0.53698114  0.61758096    -0.22500
F1365       F  0.64126458  0.56015832  0.66377821    -0.24000
F1366       F  0.68037234  0.55256907  0.68514787    -0.18000
F1367       F  0.64286668  0.52622131  0.47219195    -0.20400
F1368       F  0.60204569  0.52856049  0.44456365    -0.21600
F1369       F  0.59490119  0.49387405  0.49877178    -0.18800
F1370       F  0.60461424  0.62053040  0.62063946    -0.18900
F1371       F  0.65442556  0.64788493  0.59779911    -0.22700
F1372       F  0.64120335  0.61413071  0.65495355    -0.24300
C1373       C  0.03915899  0.79241185  0.74022153    -0.11100
C1374       C  0.01706724  0.76299438  0.75652053     0.11400
C1375       C  0.02587535  0.74812055  0.78899509    -0.02900
C1376       C  0.05681082  0.76367381  0.80461944    -0.05700
C1377       C  0.07884773  0.79358537  0.78931063    -0.16500
C1378       C  0.06989255  0.80840619  0.75655198     0.02500
C1379       C  0.98474634  0.74852057  0.73901450     0.12400
C1380       C  0.00271138  0.71598421  0.80698784     0.63000
H1381       H  0.06402614  0.75258628  0.82929098     0.12400
C1382       C  0.09245294  0.84067398  0.73820498     0.55200
H1383       H  0.03181200  0.80295762  0.71488089     0.08200
C1384       C  0.96329420  0.75768692  0.75415770    -0.05600
C1385       C  0.93285297  0.74253133  0.73674426    -0.06300
C1386       C  0.92343147  0.71874036  0.70497220    -0.15900
C1387       C  0.94523127  0.71033094  0.68877150    -0.01500
C1388       C  0.97576031  0.72564459  0.70599384    -0.09000
C1389       C  0.97254330  0.78331844  0.78853707     0.65200
H1390       H  0.91593470  0.74888756  0.74828634     0.10700
C1391       C  0.93649879  0.68574014  0.65299787     0.63600
H1392       H  0.99285761  0.71960392  0.69423197     0.08100
F1393       F  0.10029691  0.86265087  0.77139988    -0.19400
F1394       F  0.07951772  0.84892628  0.70362808    -0.15600
F1395       F  0.11916572  0.84147423  0.72214260    -0.19100
F1396       F  0.99331154  0.69431589  0.77313226    -0.22500
F1397       F  0.97682195  0.71615002  0.82448919    -0.24000
F1398       F  0.01560929  0.70662860  0.84026959    -0.18000
F1399       F  0.96243045  0.68501073  0.63674498    -0.20400
F1400       F  0.92252314  0.69197539  0.61766436    -0.21600
F1401       F  0.91598320  0.65664224  0.67041171    -0.18800
F1402       F  0.94754816  0.78712631  0.80074674    -0.18900
F1403       F  0.99569397  0.81136777  0.77134306    -0.22700
F1404       F  0.98356281  0.77619281  0.82641783    -0.24300
loop_ 
_geom_bond_atom_site_label_1 
_geom_bond_atom_site_label_2 
_geom_bond_distance 
_geom_bond_site_symmetry_2 
_ccdc_geom_bond_type 
O1            V9   1.898       .  S
O1           C11   1.262       .  A
O2            V9   1.896       .  S
O2           C12   1.263       .  A
O3            V9   1.907       .  S
O3           C13   1.268       .  A
O4            V9   1.903       .  S
O4           C14   1.267       .  A
O5           V10   1.893       .  S
O5           C14   1.261       .  A
O6           V10   1.891       .  S
O6           C13   1.261       .  A
O7           V10   1.901       .  S
O7           C12   1.264       .  A
O8           V10   1.904       .  S
O8           C11   1.266       .  A
V9           V10   2.083       .  T
C11        C1345   1.486       .  S
C12        C1386   1.478       .  S
C13        C1313   1.498       .  S
C14        C1281   1.485       .  S
O15          V23   1.901       .  S
O15          C25   1.266       .  A
O16          V23   1.903       .  S
O16          C26   1.264       .  A
O17          V23   1.913       .  S
O17          C27   1.267       .  A
O18          V23   1.904       .  S
O18          C28   1.266       .  A
O19          V24   1.894       .  S
O19          C28   1.261       .  A
O20          V24   1.896       .  S
O20          C27   1.262       .  A
O21          V24   1.898       .  S
O21          C26   1.265       .  A
O22          V24   1.897       .  S
O22          C25   1.263       .  A
V23          V24   2.083       .  T
C25        C1226   1.496       .  S
C26        C1194   1.490       .  S
C27        C1249   1.489       .  S
C28        C1377   1.484       .  S
O29          V37   1.901   1_556  S
O29          C39   1.264       .  A
O30          V37   1.900       .  S
O30          C40   1.263       .  A
O31          V37   1.901       .  S
O31          C41   1.264   1_554  A
O32          V37   1.906       .  S
O32          C42   1.265   1_565  A
O33          V38   1.899       .  S
O33          C42   1.263       .  A
O34          V38   1.900   1_566  S
O34          C41   1.265       .  A
O35          V38   1.900   1_565  S
O35          C40   1.266       .  A
O36          V38   1.898   1_556  S
O36          C39   1.265   1_545  A
V37          V38   2.084   1_565  T
C39        C1089   1.491       .  S
C40        C1121   1.494       .  S
C41        C1258   1.484       .  S
C42        C1162   1.481       .  S
O43          V51   1.904       .  S
O43          C53   1.267       .  A
O44          V51   1.905       .  S
O44          C54   1.266       .  A
O45          V51   1.904       .  S
O45          C55   1.264       .  A
O46          V51   1.900       .  S
O46          C56   1.264       .  A
O47          V52   1.896       .  S
O47          C56   1.263       .  A
O48          V52   1.896       .  S
O48          C55   1.262       .  A
O49          V52   1.906       .  S
O49          C54   1.265       .  A
O50          V52   1.906       .  S
O50          C53   1.265       .  A
V51          V52   2.085       .  T
C53         C970   1.502       .  S
C54         C993   1.489       .  S
C55        C1066   1.472       .  S
C56        C1034   1.473       .  S
O57          V65   1.899       .  S
O57          C67   1.265       .  A
O58          V65   1.896       .  S
O58          C68   1.263       .  A
O59          V65   1.896       .  S
O59          C69   1.264       .  A
O60          V65   1.897       .  S
O60          C70   1.266       .  A
O61          V66   1.903       .  S
O61          C70   1.264       .  A
O62          V66   1.904       .  S
O62          C69   1.265       .  A
O63          V66   1.894       .  S
O63          C68   1.263       .  A
O64          V66   1.896       .  S
O64          C67   1.262       .  A
V65          V66   2.083       .  T
C67         C897   1.488       .  S
C68         C929   1.475       .  S
C69        C1153   1.485       .  S
C70        C1025   1.498       .  S
O71          V79   1.903       .  S
O71          C81   1.264       .  A
O72          V79   1.902       .  S
O72          C82   1.266       .  A
O73          V79   1.902       .  S
O73          C83   1.264       .  A
O74          V79   1.902       .  S
O74          C84   1.264       .  A
O75          V80   1.898       .  S
O75          C84   1.264       .  A
O76          V80   1.895       .  S
O76          C83   1.265       .  A
O77          V80   1.907       .  S
O77          C82   1.265       .  A
O78          V80   1.911       .  S
O78          C81   1.268       .  A
V79          V80   2.081       .  T
C81         C874   1.495       .  S
C82         C833   1.502       .  S
C83        C1057   1.494       .  S
C84        C1354   1.485       .  S
O85          V93   1.912       .  S
O85          C95   1.269       .  A
O86          V93   1.906       .  S
O86          C96   1.265       .  A
O87          V93   1.898       .  S
O87          C97   1.263       .  A
O88          V93   1.897       .  S
O88          C98   1.263       .  A
O89          V94   1.894       .  S
O89          C98   1.262       .  A
O90          V94   1.896       .  S
O90          C97   1.263       .  A
O91          V94   1.901       .  S
O91          C96   1.264       .  A
O92          V94   1.899       .  S
O92          C95   1.263       .  A
V93          V94   2.086       .  T
C95         C961   1.503       .  S
C96        C1002   1.477       .  S
C97         C801   1.473       .  S
C98         C778   1.471       .  S
O99         V107   1.910       .  S
O99         C109   1.269       .  A
O100        V107   1.907       .  S
O100        C110   1.268       .  A
O101        V107   1.889       .  S
O101        C111   1.259       .  A
O102        V107   1.890       .  S
O102        C112   1.260       .  A
O103        V108   1.902       .  S
O103        C112   1.264       .  A
O104        V108   1.900       .  S
O104        C111   1.266       .  A
O105        V108   1.890       .  S
O105        C110   1.260       .  A
O106        V108   1.892       .  S
O106        C109   1.261       .  A
V107        V108   2.083       .  T
C109        C673   1.496       .  S
C110        C705   1.487       .  S
C111        C810   1.478       .  S
C112        C746   1.465       .  S
O113        V121   1.897   1_456  S
O113        C123   1.262       .  A
O114        V121   1.900       .  S
O114        C124   1.264       .  A
O115        V121   1.906   1_556  S
O115        C125   1.265   1_655  A
O116        V121   1.902       .  S
O116        C126   1.263   1_655  A
O117        V122   1.899       .  S
O117        C126   1.266       .  A
O118        V122   1.901   1_556  S
O118        C125   1.266       .  A
O119        V122   1.898       .  S
O119        C124   1.263   1_455  A
O120        V122   1.897   1_556  S
O120        C123   1.264       .  A
V121        V122   2.083   1_655  T
C123        C769   1.479       .  S
C124        C641   1.478       .  S
C125        C586   1.495       .  S
C126        C609   1.498       .  S
O127        V135   1.905       .  S
O127        C137   1.265       .  A
O128        V135   1.907       .  S
O128        C138   1.266       .  A
O129        V135   1.896       .  S
O129        C139   1.262       .  A
O130        V135   1.893       .  S
O130        C140   1.261       .  A
O131        V136   1.905       .  S
O131        C140   1.267       .  A
O132        V136   1.904       .  S
O132        C139   1.267       .  A
O133        V136   1.893       .  S
O133        C138   1.261       .  A
O134        V136   1.888       .  S
O134        C137   1.262       .  A
V135        V136   2.084       .  T
C137        C545   1.478       .  S
C138        C513   1.478       .  S
C139        C458   1.487       .  S
C140        C490   1.497       .  S
O141        V149   1.900       .  S
O141        C151   1.265       .  A
O142        V149   1.899       .  S
O142        C152   1.263       .  A
O143        V149   1.896       .  S
O143        C153   1.263       .  A
O144        V149   1.897       .  S
O144        C154   1.265       .  A
O145        V150   1.905       .  S
O145        C154   1.265       .  A
O146        V150   1.901       .  S
O146        C153   1.266       .  A
O147        V150   1.901       .  S
O147        C152   1.265       .  A
O148        V150   1.904       .  S
O148        C151   1.264       .  A
V149        V150   2.084       .  T
C151       C1322   1.487       .  S
C152       C1290   1.482       .  S
C153        C522   1.487       .  S
C154        C650   1.491       .  S
O155        V163   1.896       .  S
O155        C165   1.262       .  A
O156        V163   1.899       .  S
O156        C166   1.263   1_565  A
O157        V163   1.903       .  S
O157        C167   1.267       .  A
O158        V163   1.899       .  S
O158        C168   1.263       .  A
O159        V164   1.898       .  S
O159        C168   1.266   1_545  A
O160        V164   1.898       .  S
O160        C167   1.263   1_545  A
O161        V164   1.895       .  S
O161        C166   1.265       .  A
O162        V164   1.894   1_565  S
O162        C165   1.263       .  A
V163        V164   2.081   1_565  T
C165        C554   1.470       .  S
C166        C737   1.491       .  S
C167       C1130   1.498       .  S
C168       C1098   1.495       .  S
O169        V177   1.897       .  S
O169        C179   1.262       .  A
O170        V177   1.899       .  S
O170        C180   1.265       .  A
O171        V177   1.898       .  S
O171        C181   1.263       .  A
O172        V177   1.895       .  S
O172        C182   1.262       .  A
O173        V178   1.896       .  S
O173        C182   1.265       .  A
O174        V178   1.894       .  S
O174        C181   1.264       .  A
O175        V178   1.904       .  S
O175        C180   1.264       .  A
O176        V178   1.899       .  S
O176        C179   1.266       .  A
V177        V178   2.083       .  T
C179        C714   1.486       .  S
C180        C682   1.486       .  S
C181        C385   1.474       .  S
C182        C426   1.492       .  S
O183        V191   1.912   1_554  S
O183        C193   1.266       .  A
O184        V191   1.915       .  S
O184        C194   1.267       .  A
O185        V191   1.900   1_554  S
O185        C195   1.263       .  A
O186        V191   1.903       .  S
O186        C196   1.264       .  A
O187        V192   1.901       .  S
O187        C196   1.264       .  A
O188        V192   1.900   1_554  S
O188        C195   1.263       .  A
O189        V192   1.898       .  S
O189        C194   1.265       .  A
O190        V192   1.900   1_554  S
O190        C193   1.266       .  A
V191        V192   2.084       .  T
C193        C865   1.505       .  S
C194        C842   1.495       .  S
C195        C417   1.471       .  S
C196        C353   1.481       .  S
O197        V205   1.891       .  S
O197        C207   1.261       .  A
O198        V205   1.897       .  S
O198        C208   1.262       .  A
O199        V205   1.899       .  S
O199        C209   1.265       .  A
O200        V205   1.901       .  S
O200        C210   1.266       .  A
O201        V206   1.892       .  S
O201        C210   1.261       .  A
O202        V206   1.893       .  S
O202        C209   1.261       .  A
O203        V206   1.907       .  S
O203        C208   1.268       .  A
O204        V206   1.909       .  S
O204        C207   1.268       .  A
V205        V206   2.082       .  T
C207       C1185   1.498       .  S
C208       C1217   1.489       .  S
C209        C321   1.472       .  S
C210        C394   1.487       .  S
O211        V219   1.898       .  S
O211        C221   1.262   1_655  A
O212        V219   1.897       .  S
O212        C222   1.264   1_655  A
O213        V219   1.905       .  S
O213        C223   1.265       .  A
O214        V219   1.902   1_455  S
O214        C224   1.266       .  A
O215        V220   1.896       .  S
O215        C224   1.262       .  A
O216        V220   1.896       .  S
O216        C223   1.263   1_455  A
O217        V220   1.905       .  S
O217        C222   1.265       .  A
O218        V220   1.906       .  S
O218        C221   1.266       .  A
V219        V220   2.085   1_655  T
C221        C577   1.479       .  S
C222        C618   1.486       .  S
C223        C298   1.484       .  S
C224        C330   1.486       .  S
O225        V233   1.890       .  S
O225        C235   1.264       .  A
O226        V233   1.891       .  S
O226        C236   1.264       .  A
O227        V233   1.905       .  S
O227        C237   1.267       .  A
O228        V233   1.907       .  S
O228        C238   1.266       .  A
O229        V234   1.898       .  S
O229        C238   1.263       .  A
O230        V234   1.897       .  S
O230        C237   1.262       .  A
O231        V234   1.904       .  S
O231        C236   1.264       .  A
O232        V234   1.905       .  S
O232        C235   1.265       .  A
V233        V234   2.082       .  T
C235        C906   1.493       .  S
C236        C938   1.494       .  S
C237        C257   1.487       .  S
C238        C289   1.487       .  S
O239        V247   1.898       .  S
O239        C249   1.266       .  A
O240        V247   1.899       .  S
O240        C250   1.264       .  A
O241        V247   1.896       .  S
O241        C251   1.263       .  A
O242        V247   1.894       .  S
O242        C252   1.262       .  A
O243        V248   1.902       .  S
O243        C252   1.266       .  A
O244        V248   1.903       .  S
O244        C251   1.264       .  A
O245        V248   1.900       .  S
O245        C250   1.265       .  A
O246        V248   1.898       .  S
O246        C249   1.263       .  A
V247        V248   2.084       .  T
C249        C449   1.491       .  S
C250        C481   1.492       .  S
C251        C266   1.476       .  S
C252        C362   1.485       .  S
C253        C254   1.401       .  A
C253        C258   1.408       .  A
C253        H263   1.085       .  S
C254        C259   1.485   1_545  S
C254        C255   1.415       .  A
C255        C256   1.406       .  A
C255        C260   1.519       .  S
C256        C257   1.406       .  A
C256        H261   1.084       .  S
C257        C258   1.423       .  A
C258        C262   1.519       .  S
C259        C264   1.416       .  A
C259        C268   1.404       .  A
C260        F276   1.382       .  S
C260        F277   1.382       .  S
C260        F278   1.385       .  S
C262        F273   1.383       .  S
C262        F274   1.385       .  S
C262        F275   1.382       .  S
C264        C265   1.406       .  A
C264        C269   1.520       .  S
C265        C266   1.403       .  A
C265        H270   1.083       .  S
C266        C267   1.414       .  A
C267        C268   1.408       .  A
C267        C271   1.517       .  S
C268        H272   1.083   1_565  S
C269        F282   1.385       .  S
C269        F283   1.382       .  S
C269        F284   1.382       .  S
C271        F279   1.384       .  S
C271        F280   1.382       .  S
C271        F281   1.384       .  S
C285        C286   1.399       .  A
C285        C290   1.407       .  A
C285        H295   1.083       .  S
C286        C291   1.486       .  S
C286        C287   1.417       .  A
C287        C288   1.409       .  A
C287        C292   1.519       .  S
C288        C289   1.405       .  A
C288        H293   1.083       .  S
C289        C290   1.423       .  A
C290        C294   1.519       .  S
C291        C296   1.416       .  A
C291        C300   1.402       .  A
C292        F308   1.382       .  S
C292        F309   1.382       .  S
C292        F310   1.385       .  S
C294        F305   1.385       .  S
C294        F306   1.382       .  S
C294        F307   1.383       .  S
C296        C297   1.408       .  A
C296        C301   1.520       .  S
C297        C298   1.407       .  A
C297        H302   1.083   1_655  S
C298        C299   1.418       .  A
C299        C300   1.407       .  A
C299        C303   1.518       .  S
C300        H304   1.084       .  S
C301        F314   1.385   1_655  S
C301        F315   1.382   1_655  S
C301        F316   1.382       .  S
C303        F311   1.385       .  S
C303        F312   1.384       .  S
C303        F313   1.382       .  S
C317        C318   1.403       .  A
C317        C322   1.407       .  A
C317        H327   1.083       .  S
C318        C323   1.481       .  S
C318        C319   1.415       .  A
C319        C320   1.403       .  A
C319        C324   1.520       .  S
C320        C321   1.402       .  A
C320        H325   1.084       .  S
C321        C322   1.416       .  A
C322        C326   1.518       .  S
C323        C328   1.413       .  A
C323        C332   1.400       .  A
C324        F340   1.382       .  S
C324        F341   1.382       .  S
C324        F342   1.384       .  S
C326        F337   1.383       .  S
C326        F338   1.384       .  S
C326        F339   1.383       .  S
C328        C329   1.406       .  A
C328        C333   1.520       .  S
C329        C330   1.408       .  A
C329        H334   1.083       .  S
C330        C331   1.423       .  A
C331        C332   1.406       .  A
C331        C335   1.520       .  S
C332        H336   1.083       .  S
C333        F346   1.384   1_455  S
C333        F347   1.382       .  S
C333        F348   1.382       .  S
C335        F343   1.385       .  S
C335        F344   1.382       .  S
C335        F345   1.382       .  S
C349        C350   1.399       .  A
C349        C354   1.405       .  A
C349        H359   1.083       .  S
C350        C355   1.481       .  S
C350        C351   1.416       .  A
C351        C352   1.408       .  A
C351        C356   1.519       .  S
C352        C353   1.404       .  A
C352        H357   1.083       .  S
C353        C354   1.419       .  A
C354        C358   1.516       .  S
C355        C360   1.413       .  A
C355        C364   1.400       .  A
C356        F372   1.382       .  S
C356        F373   1.382   1_556  S
C356        F374   1.384   1_556  S
C358        F369   1.382       .  S
C358        F370   1.385       .  S
C358        F371   1.381       .  S
C360        C361   1.406       .  A
C360        C365   1.520       .  S
C361        C362   1.407       .  A
C361        H366   1.083       .  S
C362        C363   1.423       .  A
C363        C364   1.406       .  A
C363        C367   1.520       .  S
C364        H368   1.083       .  S
C365        F378   1.385       .  S
C365        F379   1.382       .  S
C365        F380   1.382       .  S
C367        F375   1.385       .  S
C367        F376   1.384       .  S
C367        F377   1.383       .  S
C381        C382   1.402       .  A
C381        C386   1.405       .  A
C381        H391   1.083       .  S
C382        C387   1.477   1_545  S
C382        C383   1.414       .  A
C383        C384   1.404       .  A
C383        C388   1.521       .  S
C384        C385   1.405       .  A
C384        H389   1.084       .  S
C385        C386   1.415       .  A
C386        C390   1.517       .  S
C387        C392   1.412       .  A
C387        C396   1.397       .  A
C388        F404   1.382       .  S
C388        F405   1.382       .  S
C388        F406   1.385       .  S
C390        F401   1.382       .  S
C390        F402   1.385       .  S
C390        F403   1.382       .  S
C392        C393   1.405       .  A
C392        C397   1.520       .  S
C393        C394   1.408       .  A
C393        H398   1.083       .  S
C394        C395   1.426       .  A
C395        C396   1.404       .  A
C395        C399   1.522       .  S
C396        H400   1.083       .  S
C397        F410   1.384       .  S
C397        F411   1.382       .  S
C397        F412   1.382   1_565  S
C399        F407   1.385       .  S
C399        F408   1.383       .  S
C399        F409   1.383       .  S
C413        C414   1.399       .  A
C413        C418   1.402       .  A
C413        H423   1.083       .  S
C414        C419   1.481       .  S
C414        C415   1.418       .  A
C415        C416   1.408   1_554  A
C415        C420   1.519   1_554  S
C416        C417   1.401   1_556  A
C416        H421   1.083       .  S
C417        C418   1.415       .  A
C418        C422   1.515       .  S
C419        C424   1.413       .  A
C419        C428   1.398       .  A
C420        F436   1.382       .  S
C420        F437   1.382       .  S
C420        F438   1.384       .  S
C422        F433   1.382       .  S
C422        F434   1.385       .  S
C422        F435   1.381       .  S
C424        C425   1.404       .  A
C424        C429   1.521       .  S
C425        C426   1.409       .  A
C425        H430   1.082       .  S
C426        C427   1.427       .  A
C427        C428   1.406       .  A
C427        C431   1.521       .  S
C428        H432   1.083       .  S
C429        F442   1.385       .  S
C429        F443   1.382       .  S
C429        F444   1.382       .  S
C431        F439   1.385       .  S
C431        F440   1.383       .  S
C431        F441   1.384       .  S
C445        C446   1.400       .  A
C445        C450   1.407       .  A
C445        H455   1.084       .  S
C446        C451   1.482       .  S
C446        C447   1.417       .  A
C447        C448   1.404       .  A
C447        C452   1.520       .  S
C448        C449   1.407       .  A
C448        H453   1.085       .  S
C449        C450   1.425       .  A
C450        C454   1.521       .  S
C451        C456   1.414       .  A
C451        C460   1.402       .  A
C452        F468   1.383       .  S
C452        F469   1.380       .  S
C452        F470   1.384       .  S
C454        F465   1.384       .  S
C454        F466   1.385       .  S
C454        F467   1.383       .  S
C456        C457   1.404       .  A
C456        C461   1.521       .  S
C457        C458   1.406       .  A
C457        H462   1.083       .  S
C458        C459   1.424       .  A
C459        C460   1.410       .  A
C459        C463   1.519       .  S
C460        H464   1.083       .  S
C461        F474   1.384       .  S
C461        F475   1.382       .  S
C461        F476   1.383       .  S
C463        F471   1.383       .  S
C463        F472   1.383       .  S
C463        F473   1.385       .  S
C477        C478   1.398       .  A
C477        C482   1.406   1_554  A
C477        H487   1.083       .  S
C478        C483   1.483       .  S
C478        C479   1.415       .  A
C479        C480   1.408   1_554  A
C479        C484   1.522       .  S
C480        C481   1.410       .  A
C480        H485   1.082       .  S
C481        C482   1.424       .  A
C482        C486   1.519       .  S
C483        C488   1.412       .  A
C483        C492   1.398       .  A
C484        F500   1.382       .  S
C484        F501   1.382       .  S
C484        F502   1.385       .  S
C486        F497   1.384       .  S
C486        F498   1.385       .  S
C486        F499   1.383       .  S
C488        C489   1.408       .  A
C488        C493   1.519       .  S
C489        C490   1.411       .  A
C489        H494   1.082       .  S
C490        C491   1.428       .  A
C491        C492   1.406       .  A
C491        C495   1.521       .  S
C492        H496   1.083       .  S
C493        F506   1.384       .  S
C493        F507   1.382       .  S
C493        F508   1.382       .  S
C495        F503   1.384       .  S
C495        F504   1.383       .  S
C495        F505   1.385       .  S
C509        C510   1.398       .  A
C509        C514   1.405       .  A
C509        H519   1.083       .  S
C510        C515   1.480       .  S
C510        C511   1.415       .  A
C511        C512   1.407       .  A
C511        C516   1.519       .  S
C512        C513   1.403       .  A
C512        H517   1.083       .  S
C513        C514   1.422       .  A
C514        C518   1.519       .  S
C515        C520   1.414       .  A
C515        C524   1.398       .  A
C516        F532   1.383       .  S
C516        F533   1.382       .  S
C516        F534   1.384       .  S
C518        F529   1.384       .  S
C518        F530   1.383       .  S
C518        F531   1.379       .  S
C520        C521   1.406       .  A
C520        C525   1.520       .  S
C521        C522   1.407       .  A
C521        H526   1.083       .  S
C522        C523   1.425       .  A
C523        C524   1.407       .  A
C523        C527   1.520       .  S
C524        H528   1.083       .  S
C525        F538   1.384       .  S
C525        F539   1.383       .  S
C525        F540   1.382       .  S
C527        F535   1.383       .  S
C527        F536   1.383       .  S
C527        F537   1.385       .  S
C541        C542   1.402       .  A
C541        C546   1.407       .  A
C541        H551   1.083       .  S
C542        C547   1.478       .  S
C542        C543   1.413       .  A
C543        C544   1.402       .  A
C543        C548   1.521       .  S
C544        C545   1.406       .  A
C544        H549   1.083       .  S
C545        C546   1.418       .  A
C546        C550   1.518       .  S
C547        C552   1.414       .  A
C547        C556   1.403       .  A
C548        F564   1.382       .  S
C548        F565   1.382       .  S
C548        F566   1.385       .  S
C550        F561   1.384       .  S
C550        F562   1.385       .  S
C550        F563   1.382       .  S
C552        C553   1.402       .  A
C552        C557   1.520       .  S
C553        C554   1.402       .  A
C553        H558   1.084       .  S
C554        C555   1.416       .  A
C555        C556   1.406       .  A
C555        C559   1.519       .  S
C556        H560   1.083       .  S
C557        F570   1.385       .  S
C557        F571   1.382       .  S
C557        F572   1.382       .  S
C559        F567   1.382       .  S
C559        F568   1.384       .  S
C559        F569   1.385       .  S
C573        C574   1.403       .  A
C573        C578   1.410       .  A
C573        H583   1.083       .  S
C574        C579   1.487       .  S
C574        C575   1.417       .  A
C575        C576   1.406       .  A
C575        C580   1.520       .  S
C576        C577   1.402       .  A
C576        H581   1.084       .  S
C577        C578   1.417       .  A
C578        C582   1.517       .  S
C579        C584   1.413       .  A
C579        C588   1.401   1_455  A
C580        F596   1.383   1_455  S
C580        F597   1.382       .  S
C580        F598   1.385       .  S
C582        F593   1.382       .  S
C582        F594   1.385       .  S
C582        F595   1.382   1_455  S
C584        C585   1.408       .  A
C584        C589   1.519       .  S
C585        C586   1.410       .  A
C585        H590   1.082       .  S
C586        C587   1.423   1_455  A
C587        C588   1.410       .  A
C587        C591   1.518       .  S
C588        H592   1.083       .  S
C589        F602   1.384       .  S
C589        F603   1.383       .  S
C589        F604   1.382       .  S
C591        F599   1.385       .  S
C591        F600   1.384       .  S
C591        F601   1.382       .  S
C605        C606   1.399   1_655  A
C605        C610   1.410       .  A
C605        H615   1.083       .  S
C606        C611   1.484       .  S
C606        C607   1.412       .  A
C607        C608   1.405       .  A
C607        C612   1.520       .  S
C608        C609   1.411       .  A
C608        H613   1.082       .  S
C609        C610   1.428   1_455  A
C610        C614   1.520       .  S
C611        C616   1.415   1_455  A
C611        C620   1.401       .  A
C612        F628   1.382       .  S
C612        F629   1.382       .  S
C612        F630   1.385       .  S
C614        F625   1.383       .  S
C614        F626   1.385       .  S
C614        F627   1.383       .  S
C616        C617   1.406       .  A
C616        C621   1.521       .  S
C617        C618   1.407   1_655  A
C617        H622   1.083       .  S
C618        C619   1.420       .  A
C619        C620   1.409       .  A
C619        C623   1.517       .  S
C620        H624   1.083       .  S
C621        F634   1.384       .  S
C621        F635   1.382       .  S
C621        F636   1.382       .  S
C623        F631   1.384       .  S
C623        F632   1.382       .  S
C623        F633   1.384       .  S
C637        C638   1.403       .  A
C637        C642   1.408       .  A
C637        H647   1.083       .  S
C638        C643   1.486       .  S
C638        C639   1.416       .  A
C639        C640   1.406       .  A
C639        C644   1.520       .  S
C640        C641   1.404       .  A
C640        H645   1.084       .  S
C641        C642   1.417       .  A
C642        C646   1.518   1_554  S
C643        C648   1.414       .  A
C643        C652   1.400       .  A
C644        F660   1.382       .  S
C644        F661   1.383       .  S
C644        F662   1.384       .  S
C646        F657   1.383   1_655  S
C646        F658   1.384       .  S
C646        F659   1.384       .  S
C648        C649   1.407       .  A
C648        C653   1.520       .  S
C649        C650   1.408       .  A
C649        H654   1.083       .  S
C650        C651   1.425       .  A
C651        C652   1.408       .  A
C651        C655   1.520       .  S
C652        H656   1.083       .  S
C653        F666   1.384       .  S
C653        F667   1.382       .  S
C653        F668   1.382       .  S
C655        F663   1.383       .  S
C655        F664   1.383       .  S
C655        F665   1.385       .  S
C669        C670   1.398       .  A
C669        C674   1.408       .  A
C669        H679   1.083       .  S
C670        C675   1.489       .  S
C670        C671   1.415       .  A
C671        C672   1.408       .  A
C671        C676   1.519       .  S
C672        C673   1.407       .  A
C672        H677   1.083       .  S
C673        C674   1.429       .  A
C674        C678   1.522       .  S
C675        C680   1.417       .  A
C675        C684   1.403       .  A
C676        F692   1.382       .  S
C676        F693   1.383       .  S
C676        F694   1.384       .  S
C678        F689   1.385       .  S
C678        F690   1.383       .  S
C678        F691   1.382       .  S
C680        C681   1.406       .  A
C680        C685   1.521       .  S
C681        C682   1.405   1_556  A
C681        H686   1.083   1_556  S
C682        C683   1.420       .  A
C683        C684   1.410   1_554  A
C683        C687   1.518       .  S
C684        H688   1.083       .  S
C685        F698   1.385       .  S
C685        F699   1.382       .  S
C685        F700   1.383       .  S
C687        F695   1.385       .  S
C687        F696   1.383       .  S
C687        F697   1.382       .  S
C701        C702   1.398       .  A
C701        C706   1.404       .  A
C701        H711   1.084       .  S
C702        C707   1.482       .  S
C702        C703   1.413       .  A
C703        C704   1.407       .  A
C703        C708   1.518       .  S
C704        C705   1.407       .  A
C704        H709   1.083       .  S
C705        C706   1.426       .  A
C706        C710   1.522       .  S
C707        C712   1.415       .  A
C707        C716   1.400       .  A
C708        F724   1.382       .  S
C708        F725   1.382       .  S
C708        F726   1.384       .  S
C710        F721   1.385       .  S
C710        F722   1.383       .  S
C710        F723   1.383       .  S
C712        C713   1.404       .  A
C712        C717   1.522       .  S
C713        C714   1.406       .  A
C713        H718   1.083       .  S
C714        C715   1.422       .  A
C715        C716   1.407       .  A
C715        C719   1.519       .  S
C716        H720   1.083       .  S
C717        F730   1.385       .  S
C717        F731   1.382       .  S
C717        F732   1.382       .  S
C719        F727   1.385       .  S
C719        F728   1.383       .  S
C719        F729   1.384       .  S
C733        C734   1.399       .  A
C733        C738   1.406       .  A
C733        H743   1.083       .  S
C734        C739   1.481       .  S
C734        C735   1.413       .  A
C735        C736   1.405       .  A
C735        C740   1.520       .  S
C736        C737   1.410       .  A
C736        H741   1.082       .  S
C737        C738   1.425       .  A
C738        C742   1.520   1_545  S
C739        C744   1.418       .  A
C739        C748   1.403       .  A
C740        F756   1.382       .  S
C740        F757   1.382       .  S
C740        F758   1.385       .  S
C742        F753   1.385       .  S
C742        F754   1.383       .  S
C742        F755   1.383       .  S
C744        C745   1.406       .  A
C744        C749   1.521       .  S
C745        C746   1.400       .  A
C745        H750   1.083       .  S
C746        C747   1.410       .  A
C747        C748   1.405       .  A
C747        C751   1.517       .  S
C748        H752   1.083       .  S
C749        F762   1.385       .  S
C749        F763   1.382       .  S
C749        F764   1.382       .  S
C751        F759   1.383       .  S
C751        F760   1.383       .  S
C751        F761   1.384       .  S
C765        C766   1.400       .  A
C765        C770   1.406       .  A
C765        H775   1.083       .  S
C766        C771   1.476       .  S
C766        C767   1.413       .  A
C767        C768   1.403       .  A
C767        C772   1.520       .  S
C768        C769   1.405       .  A
C768        H773   1.083       .  S
C769        C770   1.420       .  A
C770        C774   1.519   1_556  S
C771        C776   1.413       .  A
C771        C780   1.401       .  A
C772        F788   1.382       .  S
C772        F789   1.382       .  S
C772        F790   1.385       .  S
C774        F785   1.383       .  S
C774        F786   1.385       .  S
C774        F787   1.382   1_454  S
C776        C777   1.404       .  A
C776        C781   1.520       .  S
C777        C778   1.404       .  A
C777        H782   1.083       .  S
C778        C779   1.414       .  A
C779        C780   1.404       .  A
C779        C783   1.517       .  S
C780        H784   1.083       .  S
C781        F794   1.385       .  S
C781        F795   1.383   1_556  S
C781        F796   1.381       .  S
C783        F791   1.384       .  S
C783        F792   1.383       .  S
C783        F793   1.383       .  S
C797        C798   1.397       .  A
C797        C802   1.400       .  A
C797        H807   1.084       .  S
C798        C803   1.475       .  S
C798        C799   1.415       .  A
C799        C800   1.407       .  A
C799        C804   1.519       .  S
C800        C801   1.404       .  A
C800        H805   1.084       .  S
C801        C802   1.419       .  A
C802        C806   1.518       .  S
C803        C808   1.412       .  A
C803        C812   1.401       .  A
C804        F820   1.382       .  S
C804        F821   1.382       .  S
C804        F822   1.385       .  S
C806        F817   1.385       .  S
C806        F818   1.379       .  S
C806        F819   1.382       .  S
C808        C809   1.400       .  A
C808        C813   1.521       .  S
C809        C810   1.403       .  A
C809        H814   1.081       .  S
C810        C811   1.421       .  A
C811        C812   1.407       .  A
C811        C815   1.520       .  S
C812        H816   1.083       .  S
C813        F826   1.384       .  S
C813        F827   1.382       .  S
C813        F828   1.382       .  S
C815        F823   1.384       .  S
C815        F824   1.382       .  S
C815        F825   1.385       .  S
C829        C830   1.401       .  A
C829        C834   1.411       .  A
C829        H839   1.083       .  S
C830        C835   1.490       .  S
C830        C831   1.412       .  A
C831        C832   1.409       .  A
C831        C836   1.519       .  S
C832        C833   1.412       .  A
C832        H837   1.082       .  S
C833        C834   1.427       .  A
C834        C838   1.520       .  S
C835        C840   1.415       .  A
C835        C844   1.404       .  A
C836        F852   1.382       .  S
C836        F853   1.382       .  S
C836        F854   1.384       .  S
C838        F849   1.383       .  S
C838        F850   1.385       .  S
C838        F851   1.383       .  S
C840        C841   1.405       .  A
C840        C845   1.521       .  S
C841        C842   1.407       .  A
C841        H846   1.082       .  S
C842        C843   1.422       .  A
C843        C844   1.414       .  A
C843        C847   1.518       .  S
C844        H848   1.083       .  S
C845        F858   1.385       .  S
C845        F859   1.382       .  S
C845        F860   1.382       .  S
C847        F855   1.385       .  S
C847        F856   1.382       .  S
C847        F857   1.384       .  S
C861        C862   1.402       .  A
C861        C866   1.412       .  A
C861        H871   1.083       .  S
C862        C867   1.493       .  S
C862        C863   1.414       .  A
C863        C864   1.409       .  A
C863        C868   1.521       .  S
C864        C865   1.413       .  A
C864        H869   1.082       .  S
C865        C866   1.427       .  A
C866        C870   1.520       .  S
C867        C872   1.416       .  A
C867        C876   1.401       .  A
C868        F884   1.382       .  S
C868        F885   1.381       .  S
C868        F886   1.385       .  S
C870        F881   1.383       .  S
C870        F882   1.385       .  S
C870        F883   1.382       .  S
C872        C873   1.413       .  A
C872        C877   1.519       .  S
C873        C874   1.407       .  A
C873        H878   1.083       .  S
C874        C875   1.425       .  A
C875        C876   1.409       .  A
C875        C879   1.521       .  S
C876        H880   1.083       .  S
C877        F890   1.384       .  S
C877        F891   1.382       .  S
C877        F892   1.381       .  S
C879        F887   1.383       .  S
C879        F888   1.382       .  S
C879        F889   1.385       .  S
C893        C894   1.398       .  A
C893        C898   1.407   1_556  A
C893        H903   1.083       .  S
C894        C899   1.481       .  S
C894        C895   1.414       .  A
C895        C896   1.405   1_556  A
C895        C900   1.521       .  S
C896        C897   1.407       .  A
C896        H901   1.083       .  S
C897        C898   1.424       .  A
C898        C902   1.519       .  S
C899        C904   1.412       .  A
C899        C908   1.399       .  A
C900        F916   1.382       .  S
C900        F917   1.383       .  S
C900        F918   1.385       .  S
C902        F913   1.383       .  S
C902        F914   1.385       .  S
C902        F915   1.383       .  S
C904        C905   1.404       .  A
C904        C909   1.520       .  S
C905        C906   1.411       .  A
C905        H910   1.082       .  S
C906        C907   1.425       .  A
C907        C908   1.408       .  A
C907        C911   1.518       .  S
C908        H912   1.083       .  S
C909        F922   1.385       .  S
C909        F923   1.383       .  S
C909        F924   1.382       .  S
C911        F919   1.384       .  S
C911        F920   1.383       .  S
C911        F921   1.385       .  S
C925        C926   1.401       .  A
C925        C930   1.407       .  A
C925        H935   1.083       .  S
C926        C931   1.478       .  S
C926        C927   1.414       .  A
C927        C928   1.402       .  A
C927        C932   1.522       .  S
C928        C929   1.404       .  A
C928        H933   1.083       .  S
C929        C930   1.417       .  A
C930        C934   1.518       .  S
C931        C936   1.409       .  A
C931        C940   1.399       .  A
C932        F948   1.382       .  S
C932        F949   1.382       .  S
C932        F950   1.385       .  S
C934        F945   1.383       .  S
C934        F946   1.384       .  S
C934        F947   1.382       .  S
C936        C937   1.403       .  A
C936        C941   1.521       .  S
C937        C938   1.412       .  A
C937        H942   1.082       .  S
C938        C939   1.426       .  A
C939        C940   1.409       .  A
C939        C943   1.520       .  S
C940        H944   1.083       .  S
C941        F954   1.384       .  S
C941        F955   1.383       .  S
C941        F956   1.382       .  S
C943        F951   1.383       .  S
C943        F952   1.382       .  S
C943        F953   1.385       .  S
C957        C958   1.399       .  A
C957        C962   1.411       .  A
C957        H967   1.083       .  S
C958        C963   1.491       .  S
C958        C959   1.414       .  A
C959        C960   1.410       .  A
C959        C964   1.520       .  S
C960        C961   1.410       .  A
C960        H965   1.082       .  S
C961        C962   1.429       .  A
C962        C966   1.520       .  S
C963        C968   1.415       .  A
C963        C972   1.400       .  A
C964        F980   1.382       .  S
C964        F981   1.382       .  S
C964        F982   1.384       .  S
C966        F977   1.383       .  S
C966        F978   1.385       .  S
C966        F979   1.383       .  S
C968        C969   1.409       .  A
C968        C973   1.521       .  S
C969        C970   1.411       .  A
C969        H974   1.082       .  S
C970        C971   1.426       .  A
C971        C972   1.411       .  A
C971        C975   1.519       .  S
C972        H976   1.083       .  S
C973        F986   1.385       .  S
C973        F987   1.382       .  S
C973        F988   1.382       .  S
C975        F983   1.384       .  S
C975        F984   1.383       .  S
C975        F985   1.385       .  S
C989        C990   1.403       .  A
C989        C994   1.410       .  A
C989        H999   1.083       .  S
C990        C995   1.489       .  S
C990        C991   1.415       .  A
C991        C992   1.409       .  A
C991        C996   1.520       .  S
C992        C993   1.407       .  A
C992        H997   1.083       .  S
C993        C994   1.420       .  A
C994        C998   1.518       .  S
C995       C1000   1.418       .  A
C995       C1004   1.406       .  A
C996       F1012   1.382       .  S
C996       F1013   1.382       .  S
C996       F1014   1.385       .  S
C998       F1009   1.382       .  S
C998       F1010   1.385       .  S
C998       F1011   1.384       .  S
C1000      C1001   1.407   1_554  A
C1000      C1005   1.521       .  S
C1001      C1002   1.402       .  A
C1001      H1006   1.083       .  S
C1002      C1003   1.413       .  A
C1003      C1004   1.412   1_556  A
C1003      C1007   1.516       .  S
C1004      H1008   1.083       .  S
C1005      F1018   1.384       .  S
C1005      F1019   1.382       .  S
C1005      F1020   1.381       .  S
C1007      F1015   1.383       .  S
C1007      F1016   1.384       .  S
C1007      F1017   1.384       .  S
C1021      C1022   1.399       .  A
C1021      C1026   1.410       .  A
C1021      H1031   1.083       .  S
C1022      C1027   1.485   1_655  S
C1022      C1023   1.413       .  A
C1023      C1024   1.405       .  A
C1023      C1028   1.521       .  S
C1024      C1025   1.411       .  A
C1024      H1029   1.082       .  S
C1025      C1026   1.428       .  A
C1026      C1030   1.520       .  S
C1027      C1032   1.416       .  A
C1027      C1036   1.404       .  A
C1028      F1044   1.382       .  S
C1028      F1045   1.383   1_655  S
C1028      F1046   1.384       .  S
C1030      F1041   1.384       .  S
C1030      F1042   1.385       .  S
C1030      F1043   1.383       .  S
C1032      C1033   1.405       .  A
C1032      C1037   1.520       .  S
C1033      C1034   1.402       .  A
C1033      H1038   1.084       .  S
C1034      C1035   1.414       .  A
C1035      C1036   1.408       .  A
C1035      C1039   1.518       .  S
C1036      H1040   1.083       .  S
C1037      F1050   1.385       .  S
C1037      F1051   1.382       .  S
C1037      F1052   1.383       .  S
C1039      F1047   1.384       .  S
C1039      F1048   1.384       .  S
C1039      F1049   1.383       .  S
C1053      C1054   1.400       .  A
C1053      C1058   1.409       .  A
C1053      H1063   1.083       .  S
C1054      C1059   1.481       .  S
C1054      C1055   1.411       .  A
C1055      C1056   1.404       .  A
C1055      C1060   1.521       .  S
C1056      C1057   1.410       .  A
C1056      H1061   1.082       .  S
C1057      C1058   1.426       .  A
C1058      C1062   1.520       .  S
C1059      C1064   1.417       .  A
C1059      C1068   1.399       .  A
C1060      F1076   1.382       .  S
C1060      F1077   1.382       .  S
C1060      F1078   1.384       .  S
C1062      F1073   1.383       .  S
C1062      F1074   1.385       .  S
C1062      F1075   1.384       .  S
C1064      C1065   1.408       .  A
C1064      C1069   1.518       .  S
C1065      C1066   1.401       .  A
C1065      H1070   1.083       .  S
C1066      C1067   1.416       .  A
C1067      C1068   1.403       .  A
C1067      C1071   1.517       .  S
C1068      H1072   1.083       .  S
C1069      F1082   1.385       .  S
C1069      F1083   1.382       .  S
C1069      F1084   1.382       .  S
C1071      F1079   1.381       .  S
C1071      F1080   1.382       .  S
C1071      F1081   1.385       .  S
C1085      C1086   1.399       .  A
C1085      C1090   1.408       .  A
C1085      H1095   1.083       .  S
C1086      C1091   1.481       .  S
C1086      C1087   1.413   1_565  A
C1087      C1088   1.406       .  A
C1087      C1092   1.522       .  S
C1088      C1089   1.410   1_545  A
C1088      H1093   1.082       .  S
C1089      C1090   1.424       .  A
C1090      C1094   1.518       .  S
C1091      C1096   1.410   1_565  A
C1091      C1100   1.399       .  A
C1092      F1108   1.383   1_545  S
C1092      F1109   1.381       .  S
C1092      F1110   1.385       .  S
C1094      F1105   1.383       .  S
C1094      F1106   1.385       .  S
C1094      F1107   1.383       .  S
C1096      C1097   1.405       .  A
C1096      C1101   1.520       .  S
C1097      C1098   1.411   1_545  A
C1097      H1102   1.082       .  S
C1098      C1099   1.427       .  A
C1099      C1100   1.408       .  A
C1099      C1103   1.521       .  S
C1100      H1104   1.083       .  S
C1101      F1114   1.384       .  S
C1101      F1115   1.383       .  S
C1101      F1116   1.381       .  S
C1103      F1111   1.385       .  S
C1103      F1112   1.384       .  S
C1103      F1113   1.383       .  S
C1117      C1118   1.400       .  A
C1117      C1122   1.408       .  A
C1117      H1127   1.083       .  S
C1118      C1123   1.486       .  S
C1118      C1119   1.413       .  A
C1119      C1120   1.406       .  A
C1119      C1124   1.520   1_565  S
C1120      C1121   1.409       .  A
C1120      H1125   1.082   1_565  S
C1121      C1122   1.426       .  A
C1122      C1126   1.521       .  S
C1123      C1128   1.413       .  A
C1123      C1132   1.399   1_565  A
C1124      F1140   1.382       .  S
C1124      F1141   1.382       .  S
C1124      F1142   1.385       .  S
C1126      F1137   1.385       .  S
C1126      F1138   1.382       .  S
C1126      F1139   1.383       .  S
C1128      C1129   1.408       .  A
C1128      C1133   1.520       .  S
C1129      C1130   1.411       .  A
C1129      H1134   1.082       .  S
C1130      C1131   1.428   1_565  A
C1131      C1132   1.407       .  A
C1131      C1135   1.522       .  S
C1132      H1136   1.083       .  S
C1133      F1146   1.384       .  S
C1133      F1147   1.382       .  S
C1133      F1148   1.382       .  S
C1135      F1143   1.385       .  S
C1135      F1144   1.383       .  S
C1135      F1145   1.383       .  S
C1149      C1150   1.404       .  A
C1149      C1154   1.410       .  A
C1149      H1159   1.083       .  S
C1150      C1155   1.485       .  S
C1150      C1151   1.415       .  A
C1151      C1152   1.405       .  A
C1151      C1156   1.520       .  S
C1152      C1153   1.405       .  A
C1152      H1157   1.083       .  S
C1153      C1154   1.420       .  A
C1154      C1158   1.519       .  S
C1155      C1160   1.416       .  A
C1155      C1164   1.401       .  A
C1156      F1172   1.382       .  S
C1156      F1173   1.382       .  S
C1156      F1174   1.384       .  S
C1158      F1169   1.385       .  S
C1158      F1170   1.382       .  S
C1158      F1171   1.383       .  S
C1160      C1161   1.410       .  A
C1160      C1165   1.520       .  S
C1161      C1162   1.406       .  A
C1161      H1166   1.082   1_545  S
C1162      C1163   1.417       .  A
C1163      C1164   1.405       .  A
C1163      C1167   1.518   1_554  S
C1164      H1168   1.083       .  S
C1165      F1178   1.385   1_545  S
C1165      F1179   1.382       .  S
C1165      F1180   1.382       .  S
C1167      F1175   1.381       .  S
C1167      F1176   1.384       .  S
C1167      F1177   1.385       .  S
C1181      C1182   1.398       .  A
C1181      C1186   1.407       .  A
C1181      H1191   1.084       .  S
C1182      C1187   1.485       .  S
C1182      C1183   1.412       .  A
C1183      C1184   1.408       .  A
C1183      C1188   1.519       .  S
C1184      C1185   1.411       .  A
C1184      H1189   1.082       .  S
C1185      C1186   1.430       .  A
C1186      C1190   1.522       .  S
C1187      C1192   1.414       .  A
C1187      C1196   1.400       .  A
C1188      F1204   1.382       .  S
C1188      F1205   1.382       .  S
C1188      F1206   1.384       .  S
C1190      F1201   1.385       .  S
C1190      F1202   1.384       .  S
C1190      F1203   1.384       .  S
C1192      C1193   1.407       .  A
C1192      C1197   1.520       .  S
C1193      C1194   1.407       .  A
C1193      H1198   1.082       .  S
C1194      C1195   1.425       .  A
C1195      C1196   1.407       .  A
C1195      C1199   1.521       .  S
C1196      H1200   1.083       .  S
C1197      F1210   1.385       .  S
C1197      F1211   1.382       .  S
C1197      F1212   1.382       .  S
C1199      F1207   1.385       .  S
C1199      F1208   1.383       .  S
C1199      F1209   1.382       .  S
C1213      C1214   1.400       .  A
C1213      C1218   1.410       .  A
C1213      H1223   1.083       .  S
C1214      C1219   1.484       .  S
C1214      C1215   1.414       .  A
C1215      C1216   1.405       .  A
C1215      C1220   1.521       .  S
C1216      C1217   1.406       .  A
C1216      H1221   1.082       .  S
C1217      C1218   1.425       .  A
C1218      C1222   1.520       .  S
C1219      C1224   1.411       .  A
C1219      C1228   1.399       .  A
C1220      F1236   1.383       .  S
C1220      F1237   1.382       .  S
C1220      F1238   1.384       .  S
C1222      F1233   1.385       .  S
C1222      F1234   1.383       .  S
C1222      F1235   1.383       .  S
C1224      C1225   1.406   1_554  A
C1224      C1229   1.519       .  S
C1225      C1226   1.410       .  A
C1225      H1230   1.082       .  S
C1226      C1227   1.427       .  A
C1227      C1228   1.409   1_556  A
C1227      C1231   1.520       .  S
C1228      H1232   1.083       .  S
C1229      F1242   1.384       .  S
C1229      F1243   1.383       .  S
C1229      F1244   1.382       .  S
C1231      F1239   1.385       .  S
C1231      F1240   1.384       .  S
C1231      F1241   1.383       .  S
C1245      C1246   1.398       .  A
C1245      C1250   1.406       .  A
C1245      H1255   1.084       .  S
C1246      C1251   1.487       .  S
C1246      C1247   1.416       .  A
C1247      C1248   1.412       .  A
C1247      C1252   1.519       .  S
C1248      C1249   1.407       .  A
C1248      H1253   1.083       .  S
C1249      C1250   1.424       .  A
C1250      C1254   1.520       .  S
C1251      C1256   1.416       .  A
C1251      C1260   1.403       .  A
C1252      F1268   1.382       .  S
C1252      F1269   1.382       .  S
C1252      F1270   1.384       .  S
C1254      F1265   1.382       .  S
C1254      F1266   1.385       .  S
C1254      F1267   1.382       .  S
C1256      C1257   1.407       .  A
C1256      C1261   1.520       .  S
C1257      C1258   1.406       .  A
C1257      H1262   1.083       .  S
C1258      C1259   1.419       .  A
C1259      C1260   1.409       .  A
C1259      C1263   1.519   1_556  S
C1260      H1264   1.083       .  S
C1261      F1274   1.385       .  S
C1261      F1275   1.382       .  S
C1261      F1276   1.382       .  S
C1263      F1271   1.384       .  S
C1263      F1272   1.384       .  S
C1263      F1273   1.382       .  S
C1277      C1278   1.401       .  A
C1277      C1282   1.407       .  A
C1277      H1287   1.083       .  S
C1278      C1283   1.485       .  S
C1278      C1279   1.415       .  A
C1279      C1280   1.406       .  A
C1279      C1284   1.519       .  S
C1280      C1281   1.406       .  A
C1280      H1285   1.083       .  S
C1281      C1282   1.422       .  A
C1282      C1286   1.519       .  S
C1283      C1288   1.415       .  A
C1283      C1292   1.401       .  A
C1284      F1300   1.382       .  S
C1284      F1301   1.383       .  S
C1284      F1302   1.385       .  S
C1286      F1297   1.385       .  S
C1286      F1298   1.383       .  S
C1286      F1299   1.384       .  S
C1288      C1289   1.407   1_556  A
C1288      C1293   1.519       .  S
C1289      C1290   1.405       .  A
C1289      H1294   1.083       .  S
C1290      C1291   1.421       .  A
C1291      C1292   1.407   1_554  A
C1291      C1295   1.520       .  S
C1292      H1296   1.083       .  S
C1293      F1306   1.384       .  S
C1293      F1307   1.382       .  S
C1293      F1308   1.383       .  S
C1295      F1303   1.384   1_554  S
C1295      F1304   1.382       .  S
C1295      F1305   1.383       .  S
C1309      C1310   1.397       .  A
C1309      C1314   1.407       .  A
C1309      H1319   1.083       .  S
C1310      C1315   1.485       .  S
C1310      C1311   1.414       .  A
C1311      C1312   1.408       .  A
C1311      C1316   1.521       .  S
C1312      C1313   1.410       .  A
C1312      H1317   1.082       .  S
C1313      C1314   1.430       .  A
C1314      C1318   1.522       .  S
C1315      C1320   1.413       .  A
C1315      C1324   1.400       .  A
C1316      F1332   1.382       .  S
C1316      F1333   1.382       .  S
C1316      F1334   1.385       .  S
C1318      F1329   1.384       .  S
C1318      F1330   1.385       .  S
C1318      F1331   1.383       .  S
C1320      C1321   1.408       .  A
C1320      C1325   1.519       .  S
C1321      C1322   1.407       .  A
C1321      H1326   1.083       .  S
C1322      C1323   1.423       .  A
C1323      C1324   1.407       .  A
C1323      C1327   1.520       .  S
C1324      H1328   1.083       .  S
C1325      F1338   1.384       .  S
C1325      F1339   1.382       .  S
C1325      F1340   1.382       .  S
C1327      F1335   1.383       .  S
C1327      F1336   1.382       .  S
C1327      F1337   1.385       .  S
C1341      C1342   1.399       .  A
C1341      C1346   1.407       .  A
C1341      H1351   1.083       .  S
C1342      C1347   1.484       .  S
C1342      C1343   1.415       .  A
C1343      C1344   1.408       .  A
C1343      C1348   1.520       .  S
C1344      C1345   1.406       .  A
C1344      H1349   1.083       .  S
C1345      C1346   1.424       .  A
C1346      C1350   1.521       .  S
C1347      C1352   1.414       .  A
C1347      C1356   1.402       .  A
C1348      F1364   1.382       .  S
C1348      F1365   1.382       .  S
C1348      F1366   1.384       .  S
C1350      F1361   1.383       .  S
C1350      F1362   1.385       .  S
C1350      F1363   1.383       .  S
C1352      C1353   1.407       .  A
C1352      C1357   1.520       .  S
C1353      C1354   1.408       .  A
C1353      H1358   1.083       .  S
C1354      C1355   1.419       .  A
C1355      C1356   1.408       .  A
C1355      C1359   1.518       .  S
C1356      H1360   1.083       .  S
C1357      F1370   1.385       .  S
C1357      F1371   1.382       .  S
C1357      F1372   1.382       .  S
C1359      F1367   1.384       .  S
C1359      F1368   1.384       .  S
C1359      F1369   1.382       .  S
C1373      C1374   1.399       .  A
C1373      C1378   1.406       .  A
C1373      H1383   1.083       .  S
C1374      C1379   1.484   1_455  S
C1374      C1375   1.415       .  A
C1375      C1376   1.407       .  A
C1375      C1380   1.519       .  S
C1376      C1377   1.405       .  A
C1376      H1381   1.083       .  S
C1377      C1378   1.423       .  A
C1378      C1382   1.521       .  S
C1379      C1384   1.416       .  A
C1379      C1388   1.403       .  A
C1380      F1396   1.382   1_455  S
C1380      F1397   1.382   1_455  S
C1380      F1398   1.385       .  S
C1382      F1393   1.383       .  S
C1382      F1394   1.385       .  S
C1382      F1395   1.383       .  S
C1384      C1385   1.406       .  A
C1384      C1389   1.521       .  S
C1385      C1386   1.405       .  A
C1385      H1390   1.083       .  S
C1386      C1387   1.416       .  A
C1387      C1388   1.407       .  A
C1387      C1391   1.518       .  S
C1388      H1392   1.083       .  S
C1389      F1402   1.384       .  S
C1389      F1403   1.382       .  S
C1389      F1404   1.383       .  S
C1391      F1399   1.384       .  S
C1391      F1400   1.384       .  S
C1391      F1401   1.383       .  S
