geometry optimzed in LAMMPS
_audit_creation_date              2020-12-01 
_audit_creation_method            'lammps2cif' 
_symmetry_space_group_name_H-M    'P1' 
_symmetry_Int_Tables_number       1 
_symmetry_cell_setting            triclinic 
loop_ 
_symmetry_equiv_pos_as_xyz 
  x,y,z 
_cell_length_a                    37.54633797 
_cell_length_b                    37.699450846957255 
_cell_length_c                    65.6581854421157 
_cell_angle_alpha                 89.809447883953 
_cell_angle_beta                  89.93530381986986 
_cell_angle_gamma                 90.00754597929921 
loop_ 
_atom_site_label 
_atom_site_type_symbol 
_atom_site_fract_x 
_atom_site_fract_y 
_atom_site_fract_z 
_atom_site_charge 
C1          C  0.42692949  0.31088941  0.35416749     0.80400
N2          N  0.40335795  0.29123800  0.34325265    -0.77900
C3          C  0.40072389  0.29569456  0.32278269     0.82800
N4          N  0.42216044  0.31941325  0.31317869    -0.77900
C5          C  0.44479849  0.34005987  0.32401808     0.82900
N6          N  0.44738842  0.33555051  0.34450309    -0.79600
C7          C  0.40700252  0.33545839  0.18358282     0.80400
N8          N  0.43241127  0.35333214  0.19410566    -0.77900
C9          C  0.43805698  0.34621773  0.21410609     0.82800
N10         N  0.41839720  0.32085349  0.22359370    -0.77900
C11         C  0.39245113  0.30338766  0.21330103     0.82900
N12         N  0.38681413  0.31069945  0.19327759    -0.79600
C13         C  0.18948345  0.33436253  0.35317207     0.80400
N14         N  0.20787531  0.30828994  0.34347088    -0.77900
C15         C  0.20146810  0.30118423  0.32346902     0.82800
N16         N  0.17624531  0.32009470  0.31325791    -0.77900
C17         C  0.15828750  0.34661532  0.32280615     0.82900
N18         N  0.16509183  0.35365706  0.34267330    -0.79600
C19         C  0.42265019  0.06767389  0.18016726     0.80400
N20         N  0.39957230  0.08852655  0.19068836    -0.77900
C21         C  0.39836822  0.08726755  0.21133801     0.82800
N22         N  0.42077061  0.06520387  0.22158808    -0.77900
C23         C  0.44302261  0.04320956  0.21121487     0.82900
N24         N  0.44408411  0.04471684  0.19049659    -0.79600
C25         C  0.46933978  0.36379286  0.31319765     0.42600
N26         N  0.01005092  0.37960265  0.29219621     0.01500
C27         C  0.11275030  0.03166404  0.29170308    -0.06400
H28         H  0.97679105  0.05261580  0.28202574     0.07000
C29         C  0.98423047  0.48728995  0.21550188    -0.06700
Co30       Co  0.04851164  0.44493817  0.30546993     0.74200
N31         N  0.00915400  0.50724804  0.28887782    -0.25900
Co32       Co  0.04791103  0.50690934  0.26613426     0.74100
C33         C  0.96782869  0.01998239  0.22242897     0.42700
N34         N  0.00913181  0.40023811  0.23190008     0.01100
N35         N  0.00877243  0.50500186  0.24348904     0.01200
N36         N  0.11103022  0.49263527  0.31803780    -0.46700
H37         H  0.98097588  0.41105504  0.33435004     0.07000
N38         N  0.00928066  0.48411572  0.30405321     0.01500
N39         N  0.08702783  0.50468558  0.24344090     0.01300
C40         C  0.13058414  0.51676497  0.22350244     0.42900
N41         N  0.00959040  0.37686539  0.24693539    -0.25300
C42         C  0.11384389  0.39972170  0.31915796    -0.06300
N43         N  0.98589096  0.35478432  0.29575130    -0.46400
N44         N  0.11303289  0.02768568  0.24015359    -0.46700
C45         C  0.13098593  0.36731315  0.31204858     0.42600
N46         N  0.08676212  0.48510284  0.30403090     0.01500
N47         N  0.08716710  0.37759590  0.24681123    -0.25400
N48         N  0.01049080  0.40445490  0.30631420    -0.25900
N49         N  0.08665283  0.40042915  0.23153762     0.01200
H50         H  0.12000963  0.33217695  0.25360508     0.07000
H51         H  0.11886649  0.46855390  0.20317486     0.07100
N52         N  0.08668611  0.50810723  0.28881755    -0.25900
N53         N  0.00916900  0.47984386  0.22954961    -0.25500
N54         N  0.08800749  0.38031906  0.29195089     0.01500
C55         C  0.96636909  0.01912460  0.31073699     0.42900
C56         C  0.98328497  0.35339490  0.24404609    -0.06800
N57         N  0.08652541  0.47923819  0.22967416    -0.25500
H58         H  0.97935241  0.47235996  0.20174714     0.07100
N59         N  0.98420694  0.49065729  0.31779324    -0.46700
H60         H  0.97771547  0.33053491  0.25352376     0.07100
C61         C  0.12992925  0.36556624  0.22481076     0.42800
C62         C  0.98584739  0.39647604  0.32046530    -0.06300
Co63       Co  0.04868774  0.37797328  0.26948165     0.73800
N64         N  0.98387232  0.39366679  0.21834573    -0.46500
C65         C  0.12844305  0.52171544  0.31125830     0.43000
N66         N  0.11348237  0.35660647  0.29521521    -0.46400
Co67       Co  0.04776677  0.43986015  0.23023751     0.73900
C68         C  0.11303693  0.48470102  0.21634912    -0.06800
C69         C  0.98273479  0.03002797  0.29163435    -0.06300
N70         N  0.08765508  0.40574614  0.30573832    -0.25900
N71         N  0.98454976  0.02937680  0.23978614    -0.46600
H72         H  0.11811936  0.05456057  0.28221504     0.07000
C73         C  0.11389271  0.35471735  0.24399309    -0.06700
Cl74       Cl  0.04812936  0.44243611  0.26784141    -0.49800
C75         C  0.46636464  0.36468552  0.22516609     0.42800
H76         H  0.11940368  0.41542818  0.33253903     0.07000
N77         N  0.11151277  0.39375037  0.21770920    -0.46500
C78         C  0.17803051  0.32357813  0.18212089     0.80400
N79         N  0.19977253  0.30080883  0.19236141    -0.77900
C80         C  0.19944388  0.30005330  0.21305804     0.82800
N81         N  0.17708621  0.32166526  0.22340164    -0.77900
C82         C  0.15611255  0.34506434  0.21334940     0.82900
N83         N  0.15634367  0.34578969  0.19270705    -0.79600
C84         C  0.40786251  0.05280941  0.35188392     0.80400
N85         N  0.43280168  0.03327328  0.34185669    -0.77900
C86         C  0.43846697  0.03850809  0.32164588     0.82800
N87         N  0.41948541  0.06354659  0.31156488    -0.77900
C88         C  0.39423964  0.08270684  0.32133757     0.82900
N89         N  0.38838371  0.07733364  0.34153066    -0.79600
C90         C  0.17883625  0.06038053  0.35404143     0.80400
N91         N  0.20115394  0.08287572  0.34401770    -0.77900
C92         C  0.20028914  0.08511500  0.32336778     0.82800
N93         N  0.17671204  0.06511659  0.31276771    -0.77900
C94         C  0.15509882  0.04181045  0.32259639     0.82900
N95         N  0.15601718  0.03967478  0.34324115    -0.79600
C96         C  0.19477303  0.04683092  0.18413448     0.80400
N97         N  0.21179039  0.07347289  0.19413527    -0.77900
C98         C  0.20259366  0.08155881  0.21364331     0.82800
N99         N  0.17610234  0.06316831  0.22301825    -0.77900
C100        C  0.15935912  0.03629489  0.21322452     0.82900
N101        N  0.16878773  0.02817596  0.19382756    -0.79600
C102        C  0.22174894  0.27313370  0.31296135     0.42600
N103        N  0.23537095  0.23137003  0.29215780     0.01500
C104        C  0.38642351  0.12690438  0.29113083    -0.06400
H105        H  0.41127168  0.26129298  0.28190159     0.07000
C106        C  0.33987658  0.25789434  0.21618647    -0.06700
Co107      Co  0.30101224  0.19249126  0.30512533     0.74200
N108        N  0.36389717  0.23084544  0.28826881    -0.25900
Co109      Co  0.36262313  0.19239599  0.26566600     0.74100
C110        C  0.37208731  0.27528090  0.22347052     0.42700
N111        N  0.25509046  0.23065788  0.23132536     0.01100
N112        N  0.35999338  0.23154579  0.24315916     0.01200
N113        N  0.34683289  0.12865967  0.31720217    -0.46700
H114        H  0.27058413  0.26155845  0.33309669     0.07000
N115        N  0.34103168  0.23087116  0.30355880     0.01500
N116        N  0.36060063  0.15363648  0.24307728     0.01300
C117        C  0.37526074  0.11205550  0.22248077     0.42900
N118        N  0.23216786  0.23087992  0.24660223    -0.25300
C119        C  0.25473457  0.12848552  0.31971771    -0.06300
N120        N  0.21121909  0.25627122  0.29584453    -0.46400
N121        N  0.38506746  0.12902096  0.23963562    -0.46700
C122        C  0.22221902  0.11136541  0.31261503     0.42600
N123        N  0.34043539  0.15380106  0.30353571     0.01500
N124        N  0.23229147  0.15350355  0.24656710    -0.25400
N125        N  0.26110707  0.23096711  0.30586714    -0.25900
N126        N  0.25560678  0.15354285  0.23146642     0.01200
H127        H  0.18636577  0.12088018  0.25309673     0.07000
H128        H  0.32736839  0.12383264  0.20158885     0.07100
N129        N  0.36346519  0.15361559  0.28831487    -0.25900
N130        N  0.33438768  0.23124669  0.22939859    -0.25500
N131        N  0.23576372  0.15347684  0.29204399     0.01500
C132        C  0.37824831  0.27200394  0.31071471     0.42900
C133        C  0.20876467  0.25713640  0.24362252    -0.06800
N134        N  0.33534205  0.15409604  0.22911705    -0.25500
H135        H  0.32370176  0.26389117  0.20299861     0.07100
N136        N  0.34918274  0.25462283  0.31766276    -0.46700
H137        H  0.18604002  0.26297364  0.25318215     0.07100
C138        C  0.22042139  0.11056419  0.22453862     0.42800
C139        C  0.25471790  0.25632790  0.31969873    -0.06300
Co140      Co  0.23318414  0.19232648  0.26936125     0.73800
N141        N  0.24805650  0.25524623  0.21741069    -0.46500
C142        C  0.37527714  0.11055086  0.31021907     0.43000
N143        N  0.21184080  0.12835586  0.29551050    -0.46400
Co144      Co  0.29503748  0.19234858  0.22989647     0.73900
C145        C  0.34253835  0.12893738  0.21526418    -0.06800
C146        C  0.38814671  0.25628769  0.29132295    -0.06300
N147        N  0.26116949  0.15405499  0.30592418    -0.25900
N148        N  0.38321285  0.25750609  0.24015833    -0.46600
H149        H  0.40896697  0.12075709  0.28149898     0.07000
C150        C  0.20907866  0.12699336  0.24356560    -0.06700
Cl151      Cl  0.29792383  0.19240436  0.26751503    -0.49800
C152        C  0.21944573  0.27315228  0.22435674     0.42800
H153        H  0.27034625  0.12321254  0.33322717     0.07000
N154        N  0.24928841  0.12845816  0.21782273    -0.46500
N155        N  0.31200537  0.43657924  0.55100902    -0.36400
N156        N  0.27038097  0.39902678  0.51999897    -0.57000
N157        N  0.30312534  0.44412320  0.48898063    -0.36400
N158        N  0.34750978  0.47889127  0.51975918    -0.57000
C159        C  0.29600946  0.41158036  0.56269434     0.27200
C160        C  0.33754626  0.45228920  0.56242830     0.27200
C161        C  0.28687311  0.41959945  0.47713885     0.27100
C162        C  0.32661910  0.46184825  0.47703273     0.27100
C163        C  0.25429207  0.38572811  0.53679435     0.35800
C164        C  0.25120546  0.38804293  0.50376622     0.35800
C165        C  0.36158454  0.49473442  0.53635049     0.35800
C166        C  0.35657674  0.49898841  0.50347901     0.35800
C167        C  0.31153086  0.41151710  0.58187680    -0.21700
C168        C  0.33769324  0.43701160  0.58168792    -0.21700
C169        C  0.29995967  0.42210947  0.45742069    -0.21700
C170        C  0.32488988  0.44868180  0.45734354    -0.21700
C171        C  0.22504866  0.36552030  0.53115573    -0.22800
C172        C  0.22314522  0.36694390  0.51021924    -0.22800
C173        C  0.38026839  0.52484273  0.53051390    -0.22800
C174        C  0.37703685  0.52756516  0.50968142    -0.22800
C175        C  0.26645470  0.39026051  0.55704991    -0.18100
C176        C  0.35903306  0.48161624  0.55655179    -0.18100
C177        C  0.34849275  0.49064023  0.48303065    -0.18100
C178        C  0.25935296  0.39608772  0.48321749    -0.18100
H179        H  0.30445651  0.39520928  0.59485587     0.14800
H180        H  0.35435883  0.44395282  0.59450404     0.14800
H181        H  0.29229950  0.40650992  0.44433022     0.14800
H182        H  0.33991832  0.45732862  0.44416214     0.14800
H183        H  0.20710565  0.35105402  0.54107056     0.13100
H184        H  0.20342791  0.35392642  0.50083459     0.13100
H185        H  0.39338132  0.04383984  0.54022374     0.13100
H186        H  0.38757746  0.04866940  0.50013772     0.13100
H187        H  0.30433558  0.44390889  0.53651644     0.26300
H188        H  0.29708985  0.44988640  0.50391954     0.26300
N189        N  0.05824894  0.19458915  0.05176598    -0.36400
N190        N  0.10124869  0.23119191  0.02064781    -0.57000
N191        N  0.06911771  0.18595220  0.98961882    -0.36400
N192        N  0.02311697  0.15235450  0.02037026    -0.57000
C193        C  0.07485931  0.21883553  0.06358283     0.27200
C194        C  0.03374824  0.17760926  0.06342449     0.27200
C195        C  0.08665758  0.20966190  0.97773347     0.27100
C196        C  0.04580040  0.16849527  0.97753562     0.27100
C197        C  0.11609168  0.24568260  0.03741478     0.35800
C198        C  0.12091306  0.24204054  0.00451372     0.35800
C199        C  0.00862328  0.13656935  0.03696520     0.35800
C200        C  0.01364380  0.13274027  0.00402895     0.35800
C201        C  0.06087255  0.21698422  0.08315616    -0.21700
C202        C  0.03504549  0.19115947  0.08304404    -0.21700
C203        C  0.07473587  0.20672811  0.95781483    -0.21700
C204        C  0.04910794  0.18088551  0.95768410    -0.21700
C205        C  0.14504446  0.26645367  0.03181408    -0.22800
C206        C  0.14810905  0.26408826  0.01098175    -0.22800
C207        C  0.48932246  0.10698037  0.03103759    -0.22800
C208        C  0.49257163  0.10453162  0.01020303    -0.22800
C209        C  0.10339967  0.24143797  0.05763168    -0.18100
C210        C  0.01154324  0.14899941  0.05729385    -0.18100
C211        C  0.02235781  0.14085814  0.98355009    -0.18100
C212        C  0.11390093  0.23326419  0.98398301    -0.18100
H213        H  0.06872050  0.23220463  0.09635126     0.14800
H214        H  0.01950196  0.18296145  0.09612306     0.14800
H215        H  0.08344450  0.22171449  0.94463651     0.14800
H216        H  0.03458263  0.17231812  0.94435765     0.14800
H217        H  0.16214765  0.28183168  0.04167815     0.13100
H218        H  0.16796620  0.27720631  0.00166563     0.13100
H219        H  0.47434978  0.08903944  0.04068366     0.13100
H220        H  0.48063332  0.08440495  0.00067973     0.13100
H221        H  0.06438750  0.18898760  0.03683412     0.26300
H222        H  0.07400007  0.18072449  0.00482930     0.26300
N223        N  0.06008883  0.18080483  0.48430531    -0.36400
N224        N  0.09847350  0.14275970  0.51656490    -0.57000
N225        N  0.05918656  0.18365122  0.54657999    -0.36400
N226        N  0.01728532  0.21833870  0.51454024    -0.57000
C227        C  0.07734612  0.15597786  0.47316899     0.27200
C228        C  0.03537602  0.19613024  0.47209627     0.27200
C229        C  0.07558053  0.15973606  0.55881402     0.27100
C230        C  0.03354376  0.19954977  0.55776856     0.27100
C231        C  0.11664832  0.13026097  0.50034937     0.35800
C232        C  0.11626465  0.13199136  0.53336860     0.35800
C233        C  0.00565683  0.23539125  0.49766834     0.35800
C234        C  0.00513058  0.23685611  0.53071649     0.35800
C235        C  0.06373712  0.15599484  0.45351434    -0.21700
C236        C  0.03739015  0.18123131  0.45284344    -0.21700
C237        C  0.06034314  0.16074704  0.57805782    -0.21700
C238        C  0.03393467  0.18577524  0.57740966    -0.21700
C239        C  0.14587843  0.11085171  0.50690555    -0.22800
C240        C  0.14566292  0.11201720  0.52784949    -0.22800
C241        C  0.48519510  0.26445531  0.50317029    -0.22800
C242        C  0.48493250  0.26541798  0.52413314    -0.22800
C243        C  0.10614911  0.13443335  0.47979725    -0.18100
C244        C  0.01221149  0.22434769  0.47742059    -0.18100
C245        C  0.01130110  0.22774140  0.55131048    -0.18100
C246        C  0.10518824  0.13837794  0.55358442    -0.18100
H247        H  0.07205729  0.13976745  0.44081142     0.14800
H248        H  0.02170091  0.18794583  0.43956539     0.14800
H249        H  0.06762118  0.14532822  0.59134063     0.14800
H250        H  0.01717517  0.19309375  0.59012616     0.14800
H251        H  0.16513753  0.09698959  0.49759026     0.13100
H252        H  0.16465287  0.09923498  0.53785887     0.13100
H253        H  0.47188522  0.28303400  0.49314345     0.13100
H254        H  0.47138005  0.28483356  0.53345311     0.13100
H255        H  0.06610324  0.18814689  0.49904490     0.26300
H256        H  0.06654996  0.19047385  0.53190747     0.26300
N257        N  0.31298111  0.44578842  0.98450313    -0.36400
N258        N  0.35375316  0.40565574  0.01462781    -0.57000
N259        N  0.31383936  0.44185543  0.04674036    -0.36400
N260        N  0.27528152  0.48410478  0.01685544    -0.57000
C261        C  0.33647919  0.42918225  0.97207616     0.27200
C262        C  0.29526471  0.47024475  0.97324698     0.27200
C263        C  0.33964192  0.42567943  0.05772705     0.27100
C264        C  0.29836999  0.46632984  0.05893066     0.27100
C265        C  0.36518931  0.38877827  0.99772696     0.35800
C266        C  0.36553457  0.38672643  0.03077146     0.35800
C267        C  0.25700774  0.49675008  0.00068246     0.35800
C268        C  0.25742934  0.49441255  0.03372105     0.35800
C269        C  0.33305389  0.44293089  0.95252617    -0.21700
C270        C  0.30730364  0.46874773  0.95328100    -0.21700
C271        C  0.34041594  0.44001768  0.07717954    -0.21700
C272        C  0.31443763  0.46551795  0.07793693    -0.21700
C273        C  0.38497317  0.35915143  0.00319543    -0.22800
C274        C  0.38507368  0.35779267  0.02415745    -0.22800
C275        C  0.22625352  0.01431607  0.00713303    -0.22800
C276        C  0.22628930  0.01262978  0.02807875    -0.22800
C277        C  0.35975205  0.40089277  0.97752611    -0.18100
C278        C  0.26727784  0.49267339  0.98007118    -0.18100
C279        C  0.26867833  0.48778224  0.05390886    -0.18100
C280        C  0.36059418  0.39649314  0.05132673    -0.18100
H281        H  0.34704911  0.43492671  0.93889512     0.14800
H282        H  0.29813409  0.48419268  0.94039654     0.14800
H283        H  0.35743339  0.43259269  0.08976405     0.14800
H284        H  0.30788817  0.48124980  0.09116991     0.14800
H285        H  0.39820027  0.34061892  0.99315976     0.13100
H286        H  0.39845663  0.33813544  0.03345022     0.13100
H287        H  0.20665820  0.02780332  0.99783729     0.13100
H288        H  0.20683436  0.02459323  0.03810658     0.13100
H289        H  0.30817924  0.43977075  0.99958094     0.26300
H290        H  0.30549010  0.43470839  0.03231731     0.26300
C291        C  0.44360383  0.31507373  0.85440837     0.80400
N292        N  0.42382412  0.29013908  0.84458843    -0.77900
C293        C  0.42645119  0.28649966  0.82404575     0.82800
N294        N  0.44858805  0.30809862  0.81335147    -0.77900
C295        C  0.46937460  0.33206034  0.82310802     0.82900
N296        N  0.46652013  0.33579826  0.84360150    -0.79600
C297        C  0.46332063  0.07584800  0.85243038     0.80400
N298        N  0.48233280  0.05075006  0.84222847    -0.77900
C299        C  0.47529945  0.04392968  0.82233371     0.82800
N300        N  0.44932673  0.06226450  0.81266720    -0.77900
C301        C  0.43072665  0.08779085  0.82249302     0.82900
N302        N  0.43756207  0.09451799  0.84246517    -0.79600
C303        C  0.19376393  0.06656347  0.85459109     0.80400
N304        N  0.21634811  0.08724371  0.84348897    -0.77900
C305        C  0.21688581  0.08495047  0.82284507     0.82800
N306        N  0.19514179  0.06155630  0.81335037    -0.77900
C307        C  0.17184560  0.04157232  0.82425170     0.82900
N308        N  0.17133603  0.04391103  0.84488583    -0.79600
C309        C  0.18297338  0.29389482  0.85351585     0.80400
N310        N  0.20732059  0.27458005  0.84295541    -0.77900
C311        C  0.21380198  0.28157809  0.82296697     0.82800
N312        N  0.19555292  0.30800324  0.81344328    -0.77900
C313        C  0.17041450  0.32680197  0.82375287     0.82900
N314        N  0.16436546  0.31978996  0.84379493    -0.79600
C315        C  0.17539160  0.08128036  0.68450750     0.80400
N316        N  0.20209697  0.10002456  0.69341028    -0.77900
C317        C  0.21204919  0.09267616  0.71288121     0.82800
N318        N  0.19520076  0.06658059  0.72342626    -0.77900
C319        C  0.16806581  0.04831050  0.71477209     0.82900
N320        N  0.15832625  0.05559405  0.69530004    -0.79600
C321        C  0.44788138  0.06050800  0.68010020     0.80400
N322        N  0.42724208  0.08382447  0.69057025    -0.77900
C323        C  0.42908016  0.08549080  0.71121858     0.82800
N324        N  0.45138619  0.06333603  0.72145171    -0.77900
C325        C  0.47318875  0.04094196  0.71108932     0.82900
N326        N  0.47118613  0.03943025  0.69042867    -0.79600
C327        C  0.40229514  0.26279386  0.81300050     0.42600
N328        N  0.36163835  0.24769471  0.79187555     0.01500
C329        C  0.25830662  0.09567216  0.79140436    -0.06400
H330        H  0.39305049  0.07351980  0.78260089     0.07000
C331        C  0.38808786  0.14152649  0.71535675    -0.06700
Co332      Co  0.32236167  0.18251404  0.80491848     0.74200
N333        N  0.36137085  0.12003262  0.78862516    -0.25900
Co334      Co  0.32317727  0.12118120  0.76556648     0.74100
C335        C  0.40457336  0.10868166  0.72249543     0.42700
N336        N  0.36324009  0.22827439  0.73143307     0.01100
N337        N  0.36279737  0.12338811  0.74314260     0.01200
N338        N  0.25987318  0.13482130  0.81747950    -0.46700
H339        H  0.39003074  0.21519582  0.83399683     0.07000
N340        N  0.36110940  0.14308500  0.80374678     0.01500
N341        N  0.28468264  0.12396515  0.74260662     0.01300
C342        C  0.24173369  0.11174194  0.72237052     0.42900
N343        N  0.36281713  0.25128752  0.74656861    -0.25300
C344        C  0.25755972  0.22795135  0.81876585    -0.06300
N345        N  0.38596794  0.27223876  0.79554291    -0.46400
N346        N  0.25878745  0.10081709  0.73935174    -0.46700
C347        C  0.24081912  0.26078670  0.81193241     0.42600
N348        N  0.28385782  0.14267239  0.80332365     0.01500
N349        N  0.28531485  0.25097672  0.74623742    -0.25400
N350        N  0.36081392  0.22259908  0.80593563    -0.25900
N351        N  0.28579700  0.22847380  0.73087597     0.01200
H352        H  0.25306169  0.29665896  0.75308812     0.07000
H353        H  0.25396751  0.15995755  0.70189385     0.07100
N354        N  0.28391073  0.11982581  0.78811249    -0.25900
N355        N  0.36275882  0.14871300  0.72919527    -0.25500
N356        N  0.28351637  0.24767369  0.79151976     0.01500
C357        C  0.40288679  0.10692080  0.81132792     0.42900
C358        C  0.38913540  0.27482788  0.74368428    -0.06800
N359        N  0.28554577  0.14943851  0.72875531    -0.25500
H360        H  0.39335785  0.15666663  0.70165955     0.07100
N361        N  0.38536422  0.13598404  0.81785581    -0.46700
H362        H  0.39465709  0.29753614  0.75319730     0.07100
C363        C  0.24317922  0.26409702  0.72413270     0.42800
C364        C  0.38543316  0.23007776  0.82013794    -0.06300
Co365      Co  0.32332865  0.25001553  0.76906008     0.73800
N366        N  0.38839719  0.23524952  0.71780087    -0.46500
C367        C  0.24251757  0.10572532  0.81084363     0.43000
N368        N  0.25836185  0.27164972  0.79503180    -0.46400
Co369      Co  0.32440640  0.18879710  0.72962812     0.73900
C370        C  0.25946124  0.14383678  0.71518119    -0.06800
C371        C  0.38722486  0.09632264  0.79198840    -0.06300
N372        N  0.28357264  0.22194032  0.80521135    -0.25900
N373        N  0.38729407  0.09882300  0.73964121    -0.46600
H374        H  0.25319261  0.07259083  0.78211133     0.07000
C375        C  0.25900110  0.27426218  0.74340882    -0.06700
Cl376      Cl  0.32335916  0.18560495  0.76729232    -0.49800
C377        C  0.40593258  0.26410972  0.72465153     0.42800
H378        H  0.25199043  0.21202597  0.83212797     0.07000
N379        N  0.26124892  0.23578966  0.71696722    -0.46500
C380        C  0.46576287  0.29435735  0.68317696     0.80400
N381        N  0.48586308  0.31886179  0.69307968    -0.77900
C382        C  0.47986143  0.32587321  0.71307816     0.82800
N383        N  0.45377657  0.30814393  0.72320221    -0.77900
C384        C  0.43418644  0.28300245  0.71356326     0.82900
N385        N  0.44005452  0.27635602  0.69350762    -0.79600
C386        C  0.19360068  0.30733837  0.68225287     0.80400
N387        N  0.17205492  0.32948818  0.69297135    -0.77900
C388        C  0.17296530  0.32947370  0.71363941     0.82800
N389        N  0.19582753  0.30769747  0.72353248    -0.77900
C390        C  0.21672129  0.28488002  0.71302313     0.82900
N391        N  0.21586316  0.28488701  0.69235788    -0.79600
C392        C  0.14974205  0.35459104  0.81333400     0.42600
N393        N  0.13593673  0.39667125  0.79277607     0.01500
C394        C  0.48399269  0.00033689  0.79193340    -0.06400
H395        H  0.45963802  0.36727987  0.78218845     0.07000
C396        C  0.03243930  0.37142285  0.71639137    -0.06700
Co397      Co  0.07006888  0.43518253  0.80581686     0.74200
N398        N  0.00728853  0.39712459  0.78865615    -0.25900
Co399      Co  0.50893472  0.43590613  0.76608890     0.74100
C400        C  0.50004453  0.35388391  0.72342527     0.42700
N401        N  0.11699310  0.39815723  0.73216483     0.01100
N402        N  0.01190338  0.39711172  0.74342247     0.01200
N403        N  0.02343352  0.99848689  0.81803023    -0.46700
H404        H  0.10081272  0.36538915  0.83358796     0.07000
N405        N  0.02985771  0.39688384  0.80407220     0.01500
N406        N  0.51120611  0.47504534  0.74350227     0.01300
C407        C  0.49630883  0.01611670  0.72231046     0.42900
N408        N  0.13976705  0.39769672  0.74747122    -0.25300
C409        C  0.11699094  0.99854715  0.82074426    -0.06300
N410        N  0.16024037  0.37188844  0.79632915    -0.46400
N411        N  0.48649375  0.99923617  0.73958715    -0.46700
C412        C  0.14977898  0.01543518  0.81372458     0.42600
N413        N  0.03050664  0.47389398  0.80422841     0.01500
N414        N  0.13957322  0.47519071  0.74762618    -0.25400
N415        N  0.11010237  0.39666223  0.80646398    -0.25900
N416        N  0.11631160  0.47534417  0.73254168     0.01200
H417        H  0.18462938  0.00903736  0.75448402     0.07000
H418        H  0.04472682  0.00480863  0.70173229     0.07100
N419        N  0.50764423  0.47423303  0.78893597    -0.25900
N420        N  0.03775306  0.39769457  0.72977974    -0.25500
N421        N  0.13561193  0.47426455  0.79296623     0.01500
C422        C  0.99193213  0.35622092  0.81122115     0.42900
C423        C  0.16308907  0.37131905  0.74456940    -0.06800
N424        N  0.03669749  0.47479664  0.72964365    -0.25500
H425        H  0.04883707  0.36577976  0.70324110     0.07100
N426        N  0.02109466  0.37326119  0.81824103    -0.46700
H427        H  0.18566776  0.36526119  0.75419131     0.07100
C428        C  0.15038778  0.01970357  0.72602953     0.42800
C429        C  0.11662819  0.37101242  0.82018270    -0.06300
Co430      Co  0.13840218  0.43595471  0.77022295     0.73800
N431        N  0.12409589  0.37368498  0.71828951    -0.46500
C432        C  0.49453454  0.01617702  0.81123042     0.43000
N433        N  0.15992631  0.99896419  0.79649856    -0.46400
Co434      Co  0.07706631  0.43655260  0.73063023     0.73900
C435        C  0.02944724  0.99971247  0.71540802    -0.06800
C436        C  0.48267929  0.37195536  0.79168409    -0.06300
N437        N  0.11010808  0.47356157  0.80682713    -0.25900
N438        N  0.48867660  0.37127944  0.74015850    -0.46600
H439        H  0.46128888  0.00623173  0.78237798     0.07000
C440        C  0.16212781  0.00277156  0.74487194    -0.06700
Cl441      Cl  0.07362014  0.43591638  0.76820712    -0.49800
C442        C  0.15255580  0.35554321  0.72527749     0.42800
H443        H  0.10149555  0.00349527  0.83433744     0.07000
N444        N  0.12200250  0.00147931  0.71913372    -0.46500
C445        C  0.23931497  0.04653992  0.93944779     0.29900
C446        C  0.24475857  0.07066480  0.92341621    -0.36400
C447        C  0.22145241  0.06770426  0.90681870     0.15900
C448        C  0.19438613  0.04293929  0.90613656     0.21700
C449        C  0.18820342  0.01963941  0.92246055    -0.34500
C450        C  0.21174168  0.02230750  0.93894124     0.15800
O451        O  0.26130947  0.04078773  0.95476033    -0.26500
C452        C  0.24754001  0.51282582  0.96431870     0.05600
C453        C  0.21671123  0.50026335  0.95515282    -0.31400
O454        O  0.17946662  0.04096963  0.88800203    -0.23200
C455        C  0.19704171  0.06486136  0.87691556    -0.03200
C456        C  0.22317109  0.08261577  0.88792218    -0.17700
H457        H  0.26730467  0.08855807  0.92317954     0.20300
H458        H  0.16836313  0.49913453  0.92161035     0.18700
H459        H  0.20187876  0.47650234  0.95890531     0.18600
H460        H  0.24285106  0.10120852  0.88228419     0.14500
C461        C  0.39119382  0.34830412  0.93722926     0.29900
C462        C  0.38964475  0.32057671  0.92302840    -0.36400
C463        C  0.41133232  0.32430732  0.90572263     0.15900
C464        C  0.43321185  0.35325851  0.90264703     0.21700
C465        C  0.43514956  0.38075196  0.91697423    -0.34500
C466        C  0.41339769  0.37705761  0.93424140     0.15800
O467        O  0.37060020  0.35195523  0.95339981    -0.26500
C468        C  0.37987873  0.38336118  0.96090939     0.05600
C469        C  0.40662303  0.40001283  0.94973023    -0.31400
O470        O  0.44874877  0.35286869  0.88461927    -0.23200
C471        C  0.43674398  0.32327128  0.87599447    -0.03200
C472        C  0.41347343  0.30435536  0.88847961    -0.17700
H473        H  0.37155387  0.29844719  0.92488076     0.20300
H474        H  0.45128739  0.40414023  0.91440401     0.18700
H475        H  0.41753583  0.42630080  0.95192300     0.18600
H476        H  0.39868382  0.28053725  0.88489501     0.14500
C477        C  0.13166115  0.09417791  0.59791251     0.29900
C478        C  0.12609983  0.07172145  0.61474343    -0.36400
C479        C  0.14469457  0.08051517  0.63257654     0.15900
C480        C  0.16751686  0.10914623  0.63369246     0.21700
C481        C  0.17351578  0.13119092  0.61679806    -0.34500
C482        C  0.15477743  0.12258516  0.59903311     0.15800
O483        O  0.11333490  0.09397516  0.58076359    -0.26500
C484        C  0.12527257  0.12228983  0.57066938     0.05600
C485        C  0.15114454  0.14096715  0.58129313    -0.31400
O486        O  0.18101062  0.11342748  0.65205626    -0.23200
C487        C  0.16659094  0.08727849  0.66292418    -0.03200
C488        C  0.14374562  0.06593543  0.65159422    -0.17700
H489        H  0.10726163  0.05000477  0.61427459     0.20300
H490        H  0.19046621  0.15435312  0.61769966     0.18700
H491        H  0.16261178  0.16646952  0.57744488     0.18600
H492        H  0.12864125  0.04307863  0.65665405     0.14500
C493        C  0.46120202  0.27081988  0.63152554     0.29900
C494        C  0.44755402  0.25374693  0.61421099    -0.36400
C495        C  0.46767018  0.25729676  0.59627209     0.15900
C496        C  0.49923815  0.27603352  0.59555815     0.21700
C497        C  0.51251492  0.29358569  0.61274342    -0.34500
C498        C  0.49232110  0.29022946  0.63059301     0.15800
O499        O  0.44783043  0.26946972  0.65011411    -0.26500
C500        C  0.47058535  0.28845482  0.66117998     0.05600
C501        C  0.49872074  0.30210612  0.64980011    -0.31400
O502        O  0.01663667  0.27122902  0.57838046    -0.23200
C503        C  0.99583394  0.24964459  0.56770850    -0.03200
C504        C  0.46473733  0.24037366  0.57800848    -0.17700
H505        H  0.42376391  0.23757000  0.61489515     0.20300
H506        H  0.03779428  0.30738332  0.61247537     0.18700
H507        H  0.52098192  0.31789613  0.65501084     0.18600
H508        H  0.44553126  0.22026647  0.57383011     0.14500
C509        C  0.16245591  0.24997660  0.93967162     0.29900
C510        C  0.18079575  0.23918212  0.92212205    -0.36400
C511        C  0.17802479  0.26161743  0.90512444     0.15900
C512        C  0.15849902  0.29261337  0.90530255     0.21700
C513        C  0.14069129  0.30380480  0.92301578    -0.34500
C514        C  0.14357915  0.28138269  0.94009500     0.15800
O515        O  0.15725516  0.23050768  0.95612490    -0.26500
C516        C  0.13531324  0.24985153  0.96750579     0.05600
C517        C  0.12610451  0.28193159  0.95834405    -0.31400
O518        O  0.15759950  0.30821779  0.88724650    -0.23200
C519        C  0.17701665  0.28701102  0.87540874    -0.03200
C520        C  0.19047371  0.25770306  0.88577574    -0.17700
H521        H  0.19476318  0.21410010  0.92144584     0.20300
H522        H  0.12442567  0.32750121  0.92320220     0.18700
H523        H  0.10608151  0.30067747  0.96329239     0.18600
H524        H  0.20631319  0.23613788  0.87977174     0.14500
C525        C  0.46430338  0.10077397  0.90406154     0.29900
C526        C  0.45342417  0.11914937  0.92159613    -0.36400
C527        C  0.47471934  0.11455484  0.93900316     0.15900
C528        C  0.50486080  0.09359211  0.93907421     0.21700
C529        C  0.51527280  0.07464270  0.92169261    -0.34500
C530        C  0.49393335  0.07913651  0.90435210     0.15800
O531        O  0.44958010  0.10275645  0.88580976    -0.26500
C532        C  0.46997813  0.08193573  0.87430111     0.05600
C533        C  0.49789178  0.06650754  0.88508230    -0.31400
O534        O  0.02385358  0.09740076  0.95581929    -0.23200
C535        C  0.50535519  0.12051976  0.96687503    -0.03200
C536        C  0.47437478  0.13187849  0.95721132    -0.15700
H537        H  0.43084833  0.13699477  0.92143361     0.20300
H538        H  0.03938351  0.05891803  0.92139716     0.18700
H539        H  0.51851501  0.04904751  0.87942830     0.18600
H540        H  0.45675457  0.15310586  0.96182992     0.14500
C541        C  0.41237035  0.05310356  0.63083811     0.29900
C542        C  0.38657345  0.05812400  0.61559187    -0.36400
C543        C  0.38791138  0.03456259  0.59906534     0.15900
C544        C  0.41319893  0.50764642  0.59756033     0.21700
C545        C  0.43931941  0.50304162  0.61265216    -0.34500
C546        C  0.43759568  0.02663985  0.62927556     0.15800
O547        O  0.41396923  0.06990411  0.64844549    -0.26500
C548        C  0.44071697  0.05416437  0.65828428     0.05600
C549        C  0.45652877  0.02720665  0.64698525    -0.31400
O550        O  0.40761478  0.48665883  0.58180624    -0.23200
C551        C  0.37876122  0.50023622  0.57294002    -0.03200
C552        C  0.36538901  0.03028845  0.58296534    -0.17700
H553        H  0.36597624  0.07806542  0.61693265     0.20300
H554        H  0.45852360  0.48167117  0.61197363     0.18700
H555        H  0.47724787  0.00901161  0.65172195     0.18600
H556        H  0.34138062  0.04506396  0.57960712     0.14500
C557        C  0.24033919  0.33728683  0.59841771     0.29900
C558        C  0.24525428  0.31143824  0.61355650    -0.36400
C559        C  0.22229413  0.31333155  0.63035963     0.15900
C560        C  0.19625892  0.33897275  0.63219367     0.21700
C561        C  0.19095739  0.36454522  0.61688991    -0.34500
C562        C  0.21397016  0.36265144  0.60006241     0.15800
O563        O  0.26112547  0.34249874  0.58249477    -0.26500
C564        C  0.24765722  0.37128394  0.57365081     0.05600
C565        C  0.21834402  0.38505330  0.58390997    -0.31400
O566        O  0.18093639  0.33858216  0.65027936    -0.23200
C567        C  0.19725121  0.31228343  0.66012397    -0.03200
C568        C  0.22295926  0.29537779  0.64836873    -0.17700
H569        H  0.26671974  0.29232970  0.61279048     0.20300
H570        H  0.17155493  0.38558491  0.61850499     0.18700
H571        H  0.20399808  0.40932420  0.58067413     0.18600
H572        H  0.24163864  0.27505808  0.65304418     0.14500
C573        C  0.21976089  0.00355744  0.09836907     0.29900
C574        C  0.19958693  0.99323254  0.11540008    -0.36400
C575        C  0.20301966  0.01452591  0.13277555     0.15900
C576        C  0.22473200  0.04403829  0.13338284     0.21700
C577        C  0.24446365  0.05470399  0.11623052    -0.34500
C578        C  0.24099488  0.03344151  0.09881877     0.15800
O579        O  0.22406482  0.98500851  0.08154678    -0.26500
C580        C  0.24875426  0.50368445  0.07111420     0.05600
C581        C  0.25949336  0.53449538  0.08098292    -0.31400
O582        O  0.22510888  0.05916138  0.15150599    -0.23200
C583        C  0.20324301  0.03913153  0.16264414    -0.03200
C584        C  0.18872773  0.01099617  0.15174716    -0.17700
H585        H  0.18352151  0.96939104  0.11538678     0.20300
H586        H  0.26226457  0.07726962  0.11665770     0.18700
H587        H  0.28054843  0.55255795  0.07655200     0.18600
H588        H  0.17052760  0.99072134  0.15709531     0.14500
C589        C  0.13371221  0.08152115  0.43899145     0.29900
C590        C  0.12826758  0.05723917  0.42314191    -0.36400
C591        C  0.15115660  0.06042553  0.40633054     0.15900
C592        C  0.17779182  0.08561211  0.40525199     0.21700
C593        C  0.18375775  0.10935633  0.42130636    -0.34500
C594        C  0.16067943  0.10638565  0.43803509     0.15800
O595        O  0.11229515  0.08657906  0.45464738    -0.26500
C596        C  0.12594855  0.11476681  0.46394938     0.05600
C597        C  0.15607865  0.12817239  0.45433132    -0.31400
O598        O  0.19271458  0.08720696  0.38707599    -0.23200
C599        C  0.17553850  0.06268421  0.37635221    -0.03200
C600        C  0.14963279  0.04492857  0.38764135    -0.17700
H601        H  0.10615934  0.03881074  0.42328106     0.20300
H602        H  0.20339149  0.13030125  0.42020961     0.18700
H603        H  0.17041699  0.15230716  0.45781336     0.18600
H604        H  0.13029378  0.02579432  0.38231585     0.14500
C605        C  0.38092563  0.05237495  0.40310320     0.29900
C606        C  0.35819959  0.05896009  0.41967354    -0.36400
C607        C  0.36621864  0.04078694  0.43781118     0.15900
C608        C  0.39477740  0.01789832  0.43953932     0.21700
C609        C  0.41783082  0.01186883  0.42310209    -0.34500
C610        C  0.40960880  0.02970795  0.40495999     0.15800
O611        O  0.37665637  0.06397626  0.38426456    -0.26500
C612        C  0.40286177  0.04834328  0.37396319     0.05600
C613        C  0.42426892  0.02689818  0.38609510    -0.31400
O614        O  0.39440975  0.49998602  0.45702323    -0.23200
C615        C  0.36529690  0.51148942  0.46647539    -0.03200
C616        C  0.34699731  0.53724706  0.45545090    -0.17700
H617        H  0.33476276  0.07548101  0.41819771     0.20300
H618        H  0.43936366  0.99284814  0.42401531     0.18700
H619        H  0.44670703  0.01073013  0.38153400     0.18600
H620        H  0.32096586  0.54822531  0.45867509     0.14500
C621        C  0.12703107  0.29443548  0.09922327     0.29900
C622        C  0.12057949  0.31824408  0.11515545    -0.36400
C623        C  0.14530048  0.31778413  0.13112961     0.15900
C624        C  0.17429068  0.29527085  0.13151683     0.21700
C625        C  0.18112920  0.27192152  0.11537654    -0.34500
C626        C  0.15645683  0.27245852  0.09934942     0.15800
O627        O  0.10535565  0.28778566  0.08393108    -0.26500
C628        C  0.12132542  0.26153163  0.07399465     0.05600
C629        C  0.15321516  0.25093109  0.08284888    -0.31400
O630        O  0.19121240  0.29598360  0.14911489    -0.23200
C631        C  0.17304917  0.31953765  0.16004378    -0.03200
C632        C  0.14444952  0.33420660  0.14951512    -0.17700
H633        H  0.09691879  0.33462668  0.11558779     0.20300
H634        H  0.20302770  0.25326896  0.11580879     0.18700
H635        H  0.17006861  0.22888981  0.07856339     0.18600
H636        H  0.12405642  0.35186485  0.15524534     0.14500
C637        C  0.45645264  0.12320325  0.09821456     0.29900
C638        C  0.43131787  0.12837070  0.11379160    -0.36400
C639        C  0.43110737  0.10295296  0.12948776     0.15900
C640        C  0.45412964  0.07442368  0.12991059     0.21700
C641        C  0.47866157  0.06878339  0.11406391    -0.34500
C642        C  0.47888457  0.09419895  0.09836123     0.15800
O643        O  0.46378861  0.14559968  0.08326642    -0.26500
C644        C  0.49094649  0.13049109  0.07351844     0.05600
C645        C  0.00144221  0.09849168  0.08224285    -0.31400
O646        O  0.45270017  0.05675883  0.14732455    -0.23200
C647        C  0.42820332  0.07398334  0.15815679    -0.03200
C648        C  0.41358274  0.10267361  0.14766611    -0.17700
H649        H  0.41444259  0.15163236  0.11422620     0.20300
H650        H  0.99765256  0.04720529  0.11452687     0.18700
H651        H  0.02391105  0.08206323  0.07806987     0.18600
H652        H  0.39514037  0.12239061  0.15333682     0.14500
C653        C  0.21099056  0.37980882  0.43879282     0.29900
C654        C  0.19261606  0.39051948  0.42120252    -0.36400
C655        C  0.19468385  0.36755137  0.40447220     0.15900
C656        C  0.21360352  0.33618392  0.40495272     0.21700
C657        C  0.23129507  0.32506566  0.42272486    -0.34500
C658        C  0.22914105  0.34799780  0.43952168     0.15800
O659        O  0.21668641  0.39947778  0.45503865    -0.26500
C660        C  0.23816850  0.37984258  0.46660107     0.05600
C661        C  0.24667843  0.34741663  0.45773781    -0.31400
O662        O  0.21431787  0.32020446  0.38706467    -0.23200
C663        C  0.19539452  0.34151116  0.37500475    -0.03200
C664        C  0.18232779  0.37124886  0.38508465    -0.17700
H665        H  0.17918816  0.41587974  0.42028074     0.20300
H666        H  0.24702999  0.30102592  0.42312803     0.18700
H667        H  0.26612356  0.32820895  0.46289777     0.18600
H668        H  0.16694901  0.39300306  0.37884525     0.14500
C669        C  0.38471673  0.33658772  0.13168033     0.29900
C670        C  0.36458945  0.32885923  0.11425427    -0.36400
C671        C  0.37511222  0.34610737  0.09624599     0.15900
C672        C  0.40359033  0.36926168  0.09541545     0.21700
C673        C  0.42407056  0.37646286  0.11275263    -0.34500
C674        C  0.41330623  0.35954768  0.13076602     0.15800
O675        O  0.37834309  0.32518271  0.15036751    -0.26500
C676        C  0.40312402  0.34121785  0.16153375     0.05600
C677        C  0.42554522  0.36292404  0.15012917    -0.31400
O678        O  0.40490215  0.38710566  0.07813016    -0.23200
C679        C  0.37716120  0.37504847  0.06763874    -0.03200
C680        C  0.35794603  0.34922003  0.07809060    -0.17700
H681        H  0.34119033  0.31212074  0.11492433     0.20300
H682        H  0.44547441  0.39569403  0.11250808     0.18700
H683        H  0.44755983  0.37900783  0.15538273     0.18600
H684        H  0.33224968  0.33827627  0.07407413     0.14500
C685        C  0.46217235  0.29849326  0.40306633     0.29900
C686        C  0.98748889  0.30260988  0.41859684    -0.36400
C687        C  0.98580883  0.27793955  0.43461762     0.15900
C688        C  0.46095380  0.25097141  0.43531055     0.21700
C689        C  0.43552453  0.24694023  0.41981189    -0.34500
C690        C  0.43716841  0.27167985  0.40380366     0.15800
O691        O  0.46067525  0.31692362  0.38597253    -0.26500
C692        C  0.43427004  0.30187859  0.37560983     0.05600
C693        C  0.41856899  0.27364962  0.38601710    -0.31400
O694        O  0.46580893  0.22944615  0.45096176    -0.23200
C695        C  0.99387216  0.24306034  0.46053403    -0.03200
C696        C  0.00751411  0.27313272  0.45101559    -0.17700
H697        H  0.00782622  0.32292641  0.41789896     0.20300
H698        H  0.41653521  0.22533739  0.41989727     0.18700
H699        H  0.39795323  0.25585703  0.38072142     0.18600
H700        H  0.03110385  0.28805016  0.45502345     0.14500
C701        C  0.42728953  0.81061465  0.35423560     0.80400
N702        N  0.40366852  0.79090139  0.34339523    -0.77900
C703        C  0.40105486  0.79512358  0.32291221     0.82800
N704        N  0.42254307  0.81870638  0.31321856    -0.77900
C705        C  0.44522558  0.83943784  0.32398351     0.82900
N706        N  0.44781218  0.83512333  0.34448400    -0.79600
C707        C  0.40692733  0.83571436  0.18363062     0.80400
N708        N  0.43219251  0.85365414  0.19421634    -0.77900
C709        C  0.43797955  0.84626631  0.21416956     0.82800
N710        N  0.41860436  0.82056660  0.22355550    -0.77900
C711        C  0.39277151  0.80302170  0.21321558     0.82900
N712        N  0.38699122  0.81061408  0.19322977    -0.79600
C713        C  0.18918342  0.83408805  0.35315183     0.80400
N714        N  0.20769183  0.80810044  0.34346113    -0.77900
C715        C  0.20154881  0.80119234  0.32341658     0.82800
N716        N  0.17651136  0.82020983  0.31314152    -0.77900
C717        C  0.15845764  0.84664905  0.32268272     0.82900
N718        N  0.16495843  0.85349889  0.34260334    -0.79600
C719        C  0.42265938  0.56764144  0.18004852     0.80400
N720        N  0.39969622  0.58874324  0.19049649    -0.77900
C721        C  0.39850028  0.58766825  0.21115652     0.82800
N722        N  0.42078314  0.56558658  0.22147358    -0.77900
C723        C  0.44290754  0.54337412  0.21117947     0.82900
N724        N  0.44395381  0.54466587  0.19046023    -0.79600
C725        C  0.46963038  0.86328656  0.31310787     0.42600
N726        N  0.01031396  0.87925147  0.29210700     0.01500
C727        C  0.11243096  0.53207639  0.29194684    -0.06400
H728        H  0.97662486  0.55294714  0.28220267     0.07000
C729        C  0.98443854  0.98715779  0.21539507    -0.06700
Co730      Co  0.04863525  0.94468699  0.30539030     0.74200
N731        N  0.00929179  0.00694646  0.28879058    -0.25900
Co732      Co  0.04804988  0.00658862  0.26603964     0.74100
C733        C  0.96764478  0.52017004  0.22247035     0.42700
N734        N  0.00923465  0.90007548  0.23184473     0.01100
N735        N  0.00888603  0.00468261  0.24344449     0.01200
N736        N  0.11129959  0.99239117  0.31787068    -0.46700
H737        H  0.98108481  0.91061560  0.33424493     0.07000
N738        N  0.00938584  0.98387251  0.30399379     0.01500
N739        N  0.08712199  0.00441957  0.24332954     0.01300
C740        C  0.13046078  0.01677085  0.22329919     0.42900
N741        N  0.00974371  0.87668013  0.24686749    -0.25300
C742        C  0.11402002  0.89965150  0.31902539    -0.06300
N743        N  0.98623574  0.85434235  0.29566486    -0.46400
N744        N  0.11304292  0.52784975  0.24028665    -0.46700
C745        C  0.13130736  0.86737570  0.31186805     0.42600
N746        N  0.08691119  0.98487828  0.30392846     0.01500
N747        N  0.08736611  0.87741279  0.24661911    -0.25400
N748        N  0.01065697  0.90411900  0.30621992    -0.25900
N749        N  0.08676960  0.90021896  0.23133226     0.01200
H750        H  0.12029128  0.83204056  0.25337882     0.07000
H751        H  0.11869585  0.96866305  0.20288669     0.07100
N752        N  0.08686825  0.00779726  0.28867626    -0.25900
N753        N  0.00931128  0.97960977  0.22945985    -0.25500
N754        N  0.08828748  0.88022500  0.29178885     0.01500
C755        C  0.96625144  0.51928179  0.31086422     0.42900
C756        C  0.98329186  0.85334409  0.24406161    -0.06800
N757        N  0.08659297  0.97904501  0.22952032    -0.25500
H758        H  0.97962142  0.97232999  0.20159679     0.07100
N759        N  0.98430571  0.99051068  0.31772299    -0.46700
H760        H  0.97767295  0.83052891  0.25356491     0.07100
C761        C  0.13003837  0.86537830  0.22454473     0.42800
C762        C  0.98601409  0.89605586  0.32036034    -0.06300
Co763      Co  0.04893499  0.87775210  0.26935451     0.73800
N764        N  0.98379671  0.89365688  0.21838170    -0.46500
C765        C  0.12883662  0.02134554  0.31099627     0.43000
N766        N  0.11387387  0.85663050  0.29502100    -0.46400
Co767      Co  0.04787858  0.93965072  0.23011361     0.73900
C768        C  0.11295817  0.98468600  0.21612465    -0.06800
C769        C  0.98259196  0.53031158  0.29177088    -0.06300
N770        N  0.08781644  0.90559007  0.30561356    -0.25900
N771        N  0.98442676  0.52968032  0.23979238    -0.46600
H772        H  0.11773400  0.55507057  0.28252384     0.07000
C773        C  0.11410032  0.85455740  0.24376409    -0.06700
Cl774      Cl  0.04826800  0.94217945  0.26774871    -0.49800
C775        C  0.46622682  0.86475288  0.22524915     0.42800
H776        H  0.11950862  0.91533965  0.33242348     0.07000
N777        N  0.11157142  0.89354269  0.21746047    -0.46500
C778        C  0.17850780  0.82311612  0.18203046     0.80400
N779        N  0.20024094  0.80053782  0.19240167    -0.77900
C780        C  0.19982584  0.80005817  0.21309208     0.82800
N781        N  0.17739202  0.82174450  0.22331260    -0.77900
C782        C  0.15638106  0.84494742  0.21314290     0.82900
N783        N  0.15669053  0.84541367  0.19248863    -0.79600
C784        C  0.40794070  0.55274170  0.35214743     0.80400
N785        N  0.43284809  0.53325883  0.34206262    -0.77900
C786        C  0.43836877  0.53854011  0.32184013     0.82800
N787        N  0.41927111  0.56353105  0.31180776    -0.77900
C788        C  0.39404296  0.58262485  0.32162384     0.82900
N789        N  0.38833704  0.57724219  0.34183459    -0.79600
C790        C  0.17886529  0.56067499  0.35421419     0.80400
N791        N  0.20114163  0.58306543  0.34410352    -0.77900
C792        C  0.20010661  0.58521009  0.32345996     0.82800
N793        N  0.17640614  0.56526291  0.31294476    -0.77900
C794        C  0.15478471  0.54208886  0.32284507     0.82900
N795        N  0.15586139  0.54000200  0.34349827    -0.79600
C796        C  0.19453151  0.54706703  0.18418466     0.80400
N797        N  0.21152682  0.57373714  0.19416986    -0.77900
C798        C  0.20248356  0.58169228  0.21371606     0.82800
N799        N  0.17615860  0.56317540  0.22314772    -0.77900
C800        C  0.15944640  0.53626699  0.21338173     0.82900
N801        N  0.16873336  0.52824156  0.19394299    -0.79600
C802        C  0.22180248  0.77315687  0.31294752     0.42600
N803        N  0.23527316  0.73127320  0.29223260     0.01500
C804        C  0.38606654  0.62662377  0.29134534    -0.06400
H805        H  0.41126476  0.76066041  0.28206689     0.07000
C806        C  0.34016098  0.75749577  0.21613816    -0.06700
Co807      Co  0.30078623  0.69230426  0.30526234     0.74200
N808        N  0.36373036  0.73050722  0.28843799    -0.25900
Co809      Co  0.36242651  0.69215117  0.26580706     0.74100
C810        C  0.37249869  0.77474195  0.22334668     0.42700
N811        N  0.25517189  0.73066779  0.23149259     0.01100
N812        N  0.36001179  0.73137238  0.24326218     0.01200
N813        N  0.34652722  0.62851658  0.31743931    -0.46700
H814        H  0.27053513  0.76150535  0.33314489     0.07000
N815        N  0.34092200  0.73056583  0.30375584     0.01500
N816        N  0.36043856  0.65351156  0.24315490     0.01300
C817        C  0.37544655  0.61251727  0.22227248     0.42900
N818        N  0.23214824  0.73089070  0.24671789    -0.25300
C819        C  0.25452709  0.62836267  0.31974921    -0.06300
N820        N  0.21122273  0.75628207  0.29585429    -0.46400
N821        N  0.38507751  0.62913968  0.23956989    -0.46700
C822        C  0.22204799  0.61126818  0.31263073     0.42600
N823        N  0.34009443  0.65355522  0.30371006     0.01500
N824        N  0.23212938  0.65356020  0.24664605    -0.25400
N825        N  0.26097650  0.73082807  0.30596023    -0.25900
N826        N  0.25549224  0.65358770  0.23157007     0.01200
H827        H  0.18612088  0.62102473  0.25311926     0.07000
H828        H  0.32763417  0.62450099  0.20136205     0.07100
N829        N  0.36310169  0.65330626  0.28847570    -0.25900
N830        N  0.33443308  0.73109467  0.22948475    -0.25500
N831        N  0.23552569  0.65341527  0.29210085     0.01500
C832        C  0.37843692  0.77141955  0.31093229     0.42900
C833        C  0.20883847  0.75722224  0.24371288    -0.06800
N834        N  0.33523877  0.65410052  0.22916182    -0.25500
H835        H  0.32409802  0.76336511  0.20288670     0.07100
N836        N  0.34928863  0.75417656  0.31790322    -0.46700
H837        H  0.18605707  0.76309430  0.25322160     0.07100
C838        C  0.22025860  0.61070580  0.22459470     0.42800
C839        C  0.25466442  0.75625886  0.31975097    -0.06300
Co840      Co  0.23302833  0.69229765  0.26944468     0.73800
N841        N  0.24832837  0.75532080  0.21759772    -0.46500
C842        C  0.37498063  0.61039335  0.31048571     0.43000
N843        N  0.21161783  0.62827490  0.29554286    -0.46400
Co844      Co  0.29498400  0.69231844  0.23002027     0.73900
C845        C  0.34265078  0.62931713  0.21512760    -0.06800
C846        C  0.38813329  0.75577654  0.29150152    -0.06300
N847        N  0.26091793  0.65396604  0.30598800    -0.25900
N848        N  0.38344241  0.75712070  0.24014253    -0.46600
H849        H  0.40864351  0.62047664  0.28174049     0.07000
C850        C  0.20887483  0.62711001  0.24361345    -0.06700
Cl851      Cl  0.29777163  0.69227096  0.26763692    -0.49800
C852        C  0.21974354  0.77328511  0.22449878     0.42800
H853        H  0.27015064  0.62305467  0.33324945     0.07000
N854        N  0.24917501  0.62854049  0.21790949    -0.46500
N855        N  0.31226999  0.93627939  0.55093757    -0.36400
N856        N  0.27079437  0.89867347  0.51982752    -0.57000
N857        N  0.30344767  0.94385171  0.48882346    -0.36400
N858        N  0.34765083  0.97880003  0.51968639    -0.57000
C859        C  0.29634646  0.91121133  0.56260891     0.27200
C860        C  0.33747547  0.95236714  0.56242712     0.27200
C861        C  0.28701416  0.91952678  0.47693698     0.27100
C862        C  0.32682644  0.96169913  0.47687296     0.27100
C863        C  0.25497960  0.88497897  0.53660851     0.35800
C864        C  0.25168364  0.88760157  0.50358274     0.35800
C865        C  0.36119724  0.99499891  0.53632224     0.35800
C866        C  0.35648602  0.99899911  0.50339099     0.35800
C867        C  0.31158911  0.91146423  0.58186566    -0.21700
C868        C  0.33748462  0.93724559  0.58173485    -0.21700
C869        C  0.29985217  0.92229369  0.45717457    -0.21700
C870        C  0.32484921  0.94879371  0.45712641    -0.21700
C871        C  0.22598615  0.86444225  0.53094079    -0.22800
C872        C  0.22394537  0.86607069  0.51001503    -0.22800
C873        C  0.37928538  0.02547221  0.53049512    -0.22800
C874        C  0.37625829  0.02801906  0.50963467    -0.22800
C875        C  0.26707554  0.88954156  0.55688549    -0.18100
C876        C  0.35873072  0.98189365  0.55655546    -0.18100
C877        C  0.34868451  0.99047809  0.48290693    -0.18100
C878        C  0.25959927  0.89591647  0.48303112    -0.18100
H879        H  0.30447824  0.89518443  0.59485189     0.14800
H880        H  0.35385056  0.94448460  0.59462234     0.14800
H881        H  0.29198941  0.90691286  0.44403733     0.14800
H882        H  0.33969517  0.95760698  0.44391386     0.14800
H883        H  0.20829130  0.84962451  0.54083027     0.13100
H884        H  0.20436548  0.85287072  0.50062098     0.13100
H885        H  0.39492741  0.54281744  0.54021406     0.13100
H886        H  0.38875426  0.54797485  0.50017034     0.13100
H887        H  0.30477003  0.94339525  0.53637568     0.26300
H888        H  0.29760379  0.94941021  0.50381614     0.26300
N889        N  0.06009041  0.69348895  0.05173972    -0.36400
N890        N  0.10176973  0.73096756  0.02045789    -0.57000
N891        N  0.06859426  0.68668287  0.98943535    -0.36400
N892        N  0.02437677  0.65178400  0.02040793    -0.57000
C893        C  0.07542329  0.71902952  0.06321517     0.27200
C894        C  0.03458552  0.67759694  0.06319248     0.27200
C895        C  0.08580200  0.71058529  0.97754618     0.27100
C896        C  0.04516892  0.66922114  0.97744653     0.27100
C897        C  0.11739510  0.74469017  0.03720508     0.35800
C898        C  0.12133180  0.74168729  0.00425231     0.35800
C899        C  0.01063022  0.63550349  0.03705803     0.35800
C900        C  0.01471783  0.63228716  0.00404554     0.35800
C901        C  0.05967913  0.71907046  0.08237018    -0.21700
C902        C  0.03401820  0.69307191  0.08234643    -0.21700
C903        C  0.07339619  0.70796920  0.95770408    -0.21700
C904        C  0.04789220  0.68197300  0.95763310    -0.21700
C905        C  0.14674544  0.76483060  0.03154603    -0.22800
C906        C  0.14923157  0.76289764  0.01066914    -0.22800
C907        C  0.49164123  0.60570543  0.03116497    -0.22800
C908        C  0.49428388  0.60365420  0.01027975    -0.22800
C909        C  0.10456956  0.74088119  0.05740005    -0.18100
C910        C  0.01326066  0.64820388  0.05733806    -0.18100
C911        C  0.02246395  0.64102515  0.98351072    -0.18100
C912        C  0.11350466  0.73368332  0.98371318    -0.18100
H913        H  0.06623761  0.73566179  0.09524360     0.14800
H914        H  0.01732710  0.68608297  0.09518754     0.14800
H915        H  0.08187821  0.72308538  0.94452456     0.14800
H916        H  0.03322845  0.67339783  0.94435732     0.14800
H917        H  0.16434358  0.77968472  0.04139084     0.13100
H918        H  0.16910516  0.77584118  0.00128477     0.13100
H919        H  0.47702710  0.58754039  0.04085204     0.13100
H920        H  0.48219939  0.58361806  0.00075454     0.13100
H921        H  0.06802555  0.68604224  0.03731496     0.26300
H922        H  0.07393933  0.68118769  0.00456551     0.26300
N923        N  0.05946759  0.67991152  0.48435731    -0.36400
N924        N  0.09839401  0.64261580  0.51662868    -0.57000
N925        N  0.05926179  0.68373332  0.54659819    -0.36400
N926        N  0.01668704  0.71755956  0.51455579    -0.57000
C927        C  0.07694348  0.65522640  0.47324377     0.27200
C928        C  0.03462312  0.69498662  0.47214845     0.27200
C929        C  0.07543390  0.65962711  0.55880341     0.27100
C930        C  0.03338558  0.69939725  0.55772215     0.27100
C931        C  0.11677610  0.63039225  0.50041980     0.35800
C932        C  0.11643845  0.63227882  0.53343159     0.35800
C933        C  0.00542621  0.73472535  0.49763825     0.35800
C934        C  0.00527682  0.73671729  0.53066471     0.35800
C935        C  0.06325488  0.65499033  0.45360268    -0.21700
C936        C  0.03666057  0.67999187  0.45292030    -0.21700
C937        C  0.05983604  0.66030675  0.57795997    -0.21700
C938        C  0.03340858  0.68532826  0.57728692    -0.21700
C939        C  0.14640300  0.61159914  0.50698135    -0.22800
C940        C  0.14621159  0.61285891  0.52792276    -0.22800
C941        C  0.48595528  0.76450193  0.50305036    -0.22800
C942        C  0.48593453  0.76579653  0.52400213    -0.22800
C943        C  0.10613301  0.63422578  0.47987413    -0.18100
C944        C  0.01158239  0.72330259  0.47742658    -0.18100
C945        C  0.01133099  0.72770175  0.55127299    -0.18100
C946        C  0.10518834  0.63845040  0.55363394    -0.18100
H947        H  0.07175647  0.63883277  0.44090825     0.14800
H948        H  0.02091303  0.68659819  0.43964454     0.14800
H949        H  0.06688990  0.64467759  0.59120093     0.14800
H950        H  0.01637889  0.69245873  0.58992359     0.14800
H951        H  0.16591081  0.59807285  0.49767187     0.13100
H952        H  0.16547390  0.60050601  0.53793768     0.13100
H953        H  0.47324334  0.78340207  0.49296764     0.13100
H954        H  0.47318399  0.78582273  0.53326324     0.13100
H955        H  0.06550982  0.68744370  0.49906615     0.26300
H956        H  0.06692706  0.69086498  0.53200849     0.26300
N957        N  0.31286097  0.94592306  0.98448243    -0.36400
N958        N  0.35362876  0.90601153  0.01465634    -0.57000
N959        N  0.31322718  0.94174010  0.04667340    -0.36400
N960        N  0.27451486  0.98363013  0.01676202    -0.57000
C961        C  0.33716111  0.93012653  0.97220910     0.27200
C962        C  0.29570440  0.97094040  0.97334401     0.27200
C963        C  0.33914601  0.92582322  0.05769075     0.27100
C964        C  0.29761267  0.96618949  0.05881525     0.27100
C965        C  0.36518720  0.88919064  0.99776619     0.35800
C966        C  0.36529273  0.88700567  0.03080010     0.35800
C967        C  0.25614553  0.99597000  0.00056051     0.35800
C968        C  0.25627646  0.99348426  0.03357366     0.35800
C969        C  0.33484139  0.94496738  0.95286930    -0.21700
C970        C  0.30892600  0.97063914  0.95360529    -0.21700
C971        C  0.33986198  0.94028950  0.07710652    -0.21700
C972        C  0.31372338  0.96562134  0.07781648    -0.21700
C973        C  0.38493554  0.85954372  0.00324060    -0.22800
C974        C  0.38489775  0.85811148  0.02419985    -0.22800
C975        C  0.22763014  0.51580926  0.00733458    -0.22800
C976        C  0.22783790  0.51420749  0.02828409    -0.22800
C977        C  0.36007735  0.90152568  0.97758981    -0.18100
C978        C  0.26707662  0.99265997  0.98003335    -0.18100
C979        C  0.26771918  0.98732466  0.05375645    -0.18100
C980        C  0.36025209  0.89673541  0.05134665    -0.18100
H981        H  0.34969513  0.93781094  0.93938068     0.14800
H982        H  0.30042818  0.98676222  0.94084462     0.14800
H983        H  0.35694540  0.93304539  0.08969686     0.14800
H984        H  0.30708551  0.98135125  0.09103287     0.14800
H985        H  0.39831090  0.84110349  0.99321277     0.13100
H986        H  0.39826301  0.83845619  0.03350198     0.13100
H987        H  0.20816172  0.52956150  0.99807920     0.13100
H988        H  0.20869064  0.52655382  0.03835115     0.13100
H989        H  0.30703659  0.93885401  0.99931314     0.26300
H990        H  0.30491741  0.93443269  0.03226376     0.26300
C991        C  0.44364482  0.81547237  0.85452877     0.80400
N992        N  0.42397033  0.79044486  0.84470930    -0.77900
C993        C  0.42661743  0.78680868  0.82416636     0.82800
N994        N  0.44863688  0.80851748  0.81347376    -0.77900
C995        C  0.46929792  0.83258652  0.82321882     0.82900
N996        N  0.46646110  0.83630844  0.84371661    -0.79600
C997        C  0.46359239  0.57589136  0.85237582     0.80400
N998        N  0.48261162  0.55084192  0.84215862    -0.77900
C999        C  0.47548209  0.54396605  0.82228877     0.82800
N1000       N  0.44940508  0.56218905  0.81264249    -0.77900
C1001       C  0.43076475  0.58766873  0.82247759     0.82900
N1002       N  0.43769499  0.59445039  0.84244222    -0.79600
C1003       C  0.19364352  0.56693599  0.85455384     0.80400
N1004       N  0.21630607  0.58750826  0.84344547    -0.77900
C1005       C  0.21684170  0.58521687  0.82280597     0.82800
N1006       N  0.19500645  0.56187819  0.81330516    -0.77900
C1007       C  0.17160379  0.54197714  0.82420512     0.82900
N1008       N  0.17110222  0.54436961  0.84484774    -0.79600
C1009       C  0.18306315  0.79380516  0.85321698     0.80400
N1010       N  0.20745133  0.77457339  0.84265640    -0.77900
C1011       C  0.21396156  0.78166071  0.82268632     0.82800
N1012       N  0.19570296  0.80808876  0.81317124    -0.77900
C1013       C  0.17053271  0.82683381  0.82348482     0.82900
N1014       N  0.16446230  0.81974094  0.84351836    -0.79600
C1015       C  0.17563408  0.58090536  0.68450602     0.80400
N1016       N  0.20179355  0.60020082  0.69356208    -0.77900
C1017       C  0.21154111  0.59308965  0.71310056     0.82800
N1018       N  0.19502282  0.56663854  0.72355214    -0.77900
C1019       C  0.16841444  0.54780436  0.71473812     0.82900
N1020       N  0.15888786  0.55490184  0.69521053    -0.79600
C1021       C  0.44751270  0.55999862  0.68016437     0.80400
N1022       N  0.42685450  0.58337270  0.69057824    -0.77900
C1023       C  0.42874386  0.58524878  0.71121424     0.82800
N1024       N  0.45112521  0.56322649  0.72149777    -0.77900
C1025       C  0.47293433  0.54075291  0.71118480     0.82900
N1026       N  0.47086977  0.53903934  0.69053118    -0.79600
C1027       C  0.40261406  0.76298214  0.81309246     0.42600
N1028       N  0.36214029  0.74780331  0.79186941     0.01500
C1029       C  0.25832252  0.59595878  0.79138268    -0.06400
H1030       H  0.39285561  0.57338716  0.78259156     0.07000
C1031       C  0.38785449  0.64145352  0.71526110    -0.06700
Co1032     Co  0.32262449  0.68270048  0.80489151     0.74200
N1033       N  0.36141125  0.62008817  0.78857424    -0.25900
Co1034     Co  0.32308080  0.62143354  0.76554193     0.74100
C1035       C  0.40425810  0.60856694  0.72243051     0.42700
N1036       N  0.36358010  0.72837159  0.73138927     0.01100
N1037       N  0.36256319  0.62348873  0.74307493     0.01200
N1038       N  0.26002905  0.63500047  0.81750287    -0.46700
H1039       H  0.39018436  0.71542656  0.83409302     0.07000
N1040       N  0.36127650  0.64316072  0.80369057     0.01500
N1041       N  0.28438665  0.62446816  0.74268118     0.01300
C1042       C  0.24094592  0.61254416  0.72268993     0.42900
N1043       N  0.36336395  0.75136308  0.74654276    -0.25300
C1044       C  0.25768376  0.72808598  0.81854013    -0.06300
N1045       N  0.38642061  0.77236685  0.79558826    -0.46400
N1046       N  0.25828522  0.60149049  0.73954774    -0.46700
C1047       C  0.24101138  0.76092811  0.81167944     0.42600
N1048       N  0.28398884  0.64289464  0.80333533     0.01500
N1049       N  0.28589662  0.75163571  0.74624924    -0.25400
N1050       N  0.36119985  0.72272791  0.80593911    -0.25900
N1051       N  0.28615111  0.72906206  0.73092408     0.01200
H1052       H  0.25408564  0.79767820  0.75303826     0.07000
H1053       H  0.25314792  0.66077474  0.70219535     0.07100
N1054       N  0.28394439  0.62009955  0.78810573    -0.25900
N1055       N  0.36256630  0.64877636  0.72910819    -0.25500
N1056       N  0.28403682  0.74802186  0.79147490     0.01500
C1057       C  0.40288649  0.60679688  0.81130598     0.42900
C1058       C  0.38981973  0.77474397  0.74364097    -0.06800
N1059       N  0.28519359  0.64998471  0.72885213    -0.25500
H1060       H  0.39319888  0.65656854  0.70156402     0.07100
N1061       N  0.38550760  0.63596761  0.81779951    -0.46700
H1062       H  0.39549679  0.79741818  0.75315181     0.07100
C1063       C  0.24386499  0.76502389  0.72414488     0.42800
C1064       C  0.38571727  0.73025146  0.82020019    -0.06300
Co1065     Co  0.32388585  0.75031213  0.76905296     0.73800
N1066       N  0.38872025  0.73523983  0.71772267    -0.46500
C1067       C  0.24259263  0.60594855  0.81083977     0.43000
N1068       N  0.25878525  0.77193200  0.79489316    -0.46400
Co1069     Co  0.32443626  0.68910918  0.72962293     0.73900
C1070       C  0.25877958  0.64458655  0.71543696    -0.06800
C1071       C  0.38715689  0.59624733  0.79195911    -0.06300
N1072       N  0.28392582  0.72220930  0.80512140    -0.25900
N1073       N  0.38697457  0.59883752  0.73959198    -0.46600
H1074       H  0.25315811  0.57292505  0.78205967     0.07000
C1075       C  0.25981387  0.77518319  0.74339010    -0.06700
Cl1076     Cl  0.32356307  0.68587186  0.76727642    -0.49800
C1077       C  0.40647699  0.76397256  0.72457516     0.42800
H1078       H  0.25187318  0.71203130  0.83181726     0.07000
N1079       N  0.26164968  0.73652177  0.71702582    -0.46500
C1080       C  0.46560345  0.79499341  0.68291799     0.80400
N1081       N  0.48609285  0.81907249  0.69291625    -0.77900
C1082       C  0.48060844  0.82551367  0.71302945     0.82800
N1083       N  0.45466451  0.80761523  0.72317047    -0.77900
C1084       C  0.43470606  0.78286372  0.71344525     0.82900
N1085       N  0.44003883  0.77680541  0.69327239    -0.79600
C1086       C  0.19403008  0.80761260  0.68219485     0.80400
N1087       N  0.17242389  0.82980697  0.69284020    -0.77900
C1088       C  0.17342894  0.83006451  0.71350449     0.82800
N1089       N  0.19642879  0.80853366  0.72346635    -0.77900
C1090       C  0.21737304  0.78568840  0.71302412     0.82900
N1091       N  0.21641974  0.78540462  0.69236710    -0.79600
C1092       C  0.14982248  0.85461720  0.81306883     0.42600
N1093       N  0.13604753  0.89681768  0.79257488     0.01500
C1094       C  0.48414620  0.50039911  0.79193803    -0.06400
H1095       H  0.45964333  0.86751850  0.78220086     0.07000
C1096       C  0.03310426  0.87119943  0.71637049    -0.06700
Co1097     Co  0.07015825  0.93530423  0.80568881     0.74200
N1098       N  0.00741878  0.89722189  0.78856576    -0.25900
Co1099     Co  0.50906712  0.93591871  0.76596411     0.74100
C1100       C  0.50086840  0.85341498  0.72345127     0.42700
N1101       N  0.11729299  0.89860536  0.73197855     0.01100
N1102       N  0.01229878  0.89699430  0.74331472     0.01200
N1103       N  0.02348347  0.49843885  0.81808612    -0.46700
H1104       H  0.10085832  0.86530917  0.83331370     0.07000
N1105       N  0.02994254  0.89708781  0.80400006     0.01500
N1106       N  0.51126173  0.97503030  0.74334967     0.01300
C1107       C  0.49619787  0.51610625  0.72245552     0.42900
N1108       N  0.14006280  0.89820538  0.74727909    -0.25300
C1109       C  0.11677723  0.49874762  0.82074072    -0.06300
N1110       N  0.16034216  0.87200747  0.79609525    -0.46400
N1111       N  0.48641446  0.49922508  0.73973412    -0.46700
C1112       C  0.14952747  0.51572278  0.81368799     0.42600
N1113       N  0.03055264  0.97403710  0.80412458     0.01500
N1114       N  0.13942738  0.97566989  0.74759659    -0.25400
N1115       N  0.11019489  0.89674202  0.80625774    -0.25900
N1116       N  0.11618737  0.97576182  0.73250068     0.01200
H1117       H  0.18512722  0.50817995  0.75437119     0.07000
H1118       H  0.04458885  0.50475597  0.70185555     0.07100
N1119       N  0.50764022  0.97431213  0.78884807    -0.25900
N1120       N  0.03815171  0.89766710  0.72967256    -0.25500
N1121       N  0.13568482  0.97433549  0.79287057     0.01500
C1122       C  0.99183290  0.85671267  0.81130421     0.42900
C1123       C  0.16353587  0.87199417  0.74434523    -0.06800
N1124       N  0.03674702  0.97479854  0.72949339    -0.25500
H1125       H  0.04959682  0.86554778  0.70325938     0.07100
N1126       N  0.02104384  0.87371354  0.81827304    -0.46700
H1127       H  0.18614069  0.86601801  0.75396348     0.07100
C1128       C  0.15092250  0.51893616  0.72591332     0.42800
C1129       C  0.11669295  0.87100253  0.81992581    -0.06300
Co1130     Co  0.13849096  0.93625391  0.77009017     0.73800
N1131       N  0.12449228  0.87420745  0.71807972    -0.46500
C1132       C  0.49471689  0.51624503  0.81121160     0.43000
N1133       N  0.15974600  0.49905439  0.79652379    -0.46400
Co1134     Co  0.07721315  0.93675828  0.73050371     0.73900
C1135       C  0.02936273  0.49970682  0.71555586    -0.06800
C1136       C  0.48271021  0.87218530  0.79167728    -0.06300
N1137       N  0.11020247  0.97357717  0.80673644    -0.25900
N1138       N  0.48933094  0.87090170  0.74012297    -0.46600
H1139       H  0.46153649  0.50640253  0.78233222     0.07000
C1140       C  0.16254151  0.50204751  0.74479545    -0.06700
Cl1141     Cl  0.07372752  0.93608268  0.76808387    -0.49800
C1142       C  0.15304358  0.85621285  0.72505921     0.42800
H1143       H  0.10119985  0.50383068  0.83428729     0.07000
N1144       N  0.12234953  0.50089310  0.71909427    -0.46500
C1145       C  0.23973723  0.54632581  0.93933861     0.29900
C1146       C  0.24529803  0.57037723  0.92327906    -0.36400
C1147       C  0.22190707  0.56756645  0.90670700     0.15900
C1148       C  0.19466177  0.54299803  0.90606727     0.21700
C1149       C  0.18847907  0.51965089  0.92237775    -0.34500
C1150       C  0.21209345  0.52217917  0.93884007     0.15800
O1151       O  0.26160837  0.54065161  0.95472023    -0.26500
C1152       C  0.24737394  0.01282742  0.96429151     0.05600
C1153       C  0.21648642  0.00030926  0.95519103    -0.31400
O1154       O  0.17949289  0.54128624  0.88798633    -0.23200
C1155       C  0.19711121  0.56511887  0.87687892    -0.03200
C1156       C  0.22352854  0.58258157  0.88782930    -0.17700
H1157       H  0.26790768  0.58819059  0.92303734     0.20300
H1158       H  0.16823958  0.99897907  0.92166394     0.18700
H1159       H  0.20172202  0.97649714  0.95892328     0.18600
H1160       H  0.24328583  0.60106749  0.88216177     0.14500
C1161       C  0.39128239  0.84869513  0.93734095     0.29900
C1162       C  0.38942784  0.82110570  0.92306518    -0.36400
C1163       C  0.41136718  0.82460604  0.90584951     0.15900
C1164       C  0.43379155  0.85319211  0.90293778     0.21700
C1165       C  0.43609010  0.88049814  0.91736752    -0.34500
C1166       C  0.41404442  0.87706615  0.93453082     0.15800
O1167       O  0.37045997  0.85264461  0.95338796    -0.26500
C1168       C  0.38012072  0.88386908  0.96098744     0.05600
C1169       C  0.40738406  0.90008125  0.95001175    -0.31400
O1170       O  0.44938573  0.85277368  0.88492429    -0.23200
C1171       C  0.43687786  0.82351815  0.87614845    -0.03200
C1172       C  0.41322832  0.80485048  0.88852301    -0.17700
H1173       H  0.37088249  0.79931615  0.92476899     0.20300
H1174       H  0.45264590  0.90363282  0.91491731     0.18700
H1175       H  0.41873326  0.92615439  0.95231793     0.18600
H1176       H  0.39798607  0.78138158  0.88480276     0.14500
C1177       C  0.13151110  0.59413336  0.59797068     0.29900
C1178       C  0.12604052  0.57157523  0.61477172    -0.36400
C1179       C  0.14489811  0.58014626  0.63255652     0.15900
C1180       C  0.16779395  0.60872120  0.63366543     0.21700
C1181       C  0.17368026  0.63086781  0.61680245    -0.34500
C1182       C  0.15475264  0.62243720  0.59907692     0.15800
O1183       O  0.11312466  0.59404071  0.58084022    -0.26500
C1184       C  0.12517088  0.62231127  0.57074153     0.05600
C1185       C  0.15115148  0.64086034  0.58134814    -0.31400
O1186       O  0.18140026  0.61291522  0.65201004    -0.23200
C1187       C  0.16700506  0.58675417  0.66287746    -0.03200
C1188       C  0.14409324  0.56545828  0.65155331    -0.17700
H1189       H  0.10712421  0.54992436  0.61431535     0.20300
H1190       H  0.19071601  0.65396776  0.61769912     0.18700
H1191       H  0.16277894  0.66628114  0.57747999     0.18600
H1192       H  0.12891367  0.54265975  0.65662664     0.14500
C1193       C  0.46031518  0.77249631  0.63109648     0.29900
C1194       C  0.44677312  0.75528887  0.61379197    -0.36400
C1195       C  0.46723756  0.75831280  0.59594399     0.15900
C1196       C  0.49896046  0.77679962  0.59528628     0.21700
C1197       C  0.51205400  0.79460798  0.61243061    -0.34500
C1198       C  0.49158488  0.79167096  0.63020390     0.15800
O1199       O  0.44698224  0.77106276  0.64970119    -0.26500
C1200       C  0.46993649  0.78973336  0.66081760     0.05600
C1201       C  0.49809903  0.80333471  0.64944151    -0.31400
O1202       O  0.01667871  0.77143700  0.57826559    -0.23200
C1203       C  0.99592142  0.74975760  0.56763035    -0.03200
C1204       C  0.46457089  0.74093504  0.57780450    -0.17700
H1205       H  0.42291823  0.73920488  0.61446018     0.20300
H1206       H  0.03749314  0.80811377  0.61223414     0.18700
H1207       H  0.52062137  0.81869512  0.65470754     0.18600
H1208       H  0.44527007  0.72091073  0.57363803     0.14500
C1209       C  0.16194507  0.74969992  0.93930888     0.29900
C1210       C  0.18016094  0.73868470  0.92175458    -0.36400
C1211       C  0.17756697  0.76112073  0.90473923     0.15900
C1212       C  0.15831180  0.79228722  0.90492379     0.21700
C1213       C  0.14057795  0.80363180  0.92261434    -0.34500
C1214       C  0.14330117  0.78124329  0.93969991     0.15800
O1215       O  0.15669225  0.73040129  0.95582067    -0.26500
C1216       C  0.13494338  0.74999659  0.96718239     0.05600
C1217       C  0.12590357  0.78205803  0.95796015    -0.31400
O1218       O  0.15765841  0.80800584  0.88690826    -0.23200
C1219       C  0.17695811  0.78672566  0.87506910    -0.03200
C1220       C  0.19008822  0.75720670  0.88539618    -0.17700
H1221       H  0.19396476  0.71350941  0.92110663     0.20300
H1222       H  0.12454051  0.82748107  0.92279140     0.18700
H1223       H  0.10604255  0.80098895  0.96289046     0.18600
H1224       H  0.20580232  0.73556037  0.87937906     0.14500
C1225       C  0.46472765  0.60068309  0.90402636     0.29900
C1226       C  0.45364262  0.61876952  0.92161378    -0.36400
C1227       C  0.47498408  0.61427663  0.93900654     0.15900
C1228       C  0.50536694  0.59366593  0.93902183     0.21700
C1229       C  0.51601257  0.57499876  0.92157580    -0.34500
C1230       C  0.49461793  0.57940181  0.90424042     0.15800
O1231       O  0.44987893  0.60257807  0.88580681    -0.26500
C1232       C  0.47043744  0.58205136  0.87422647     0.05600
C1233       C  0.49862224  0.56691836  0.88493327    -0.31400
O1234       O  0.02433301  0.59761431  0.95576938    -0.23200
C1235       C  0.50559398  0.62048198  0.96687123    -0.03200
C1236       C  0.47446456  0.63151345  0.95724103    -0.15700
H1237       H  0.43085055  0.63633980  0.92150392     0.20300
H1238       H  0.04030853  0.55956059  0.92123584     0.18700
H1239       H  0.51939010  0.54968646  0.87921949     0.18600
H1240       H  0.45663396  0.65255085  0.96188268     0.14500
C1241       C  0.41227712  0.55265867  0.63086204     0.29900
C1242       C  0.38643158  0.55756018  0.61564753    -0.36400
C1243       C  0.38800027  0.53417170  0.59906468     0.15900
C1244       C  0.41282811  0.00776168  0.59766459     0.21700
C1245       C  0.43884846  0.00300138  0.61279690    -0.34500
C1246       C  0.43780350  0.52649323  0.62921446     0.15800
O1247       O  0.41361436  0.56924863  0.64853170    -0.26500
C1248       C  0.44047679  0.55367612  0.65834177     0.05600
C1249       C  0.45665009  0.52703544  0.64695824    -0.31400
O1250       O  0.40713767  0.98674259  0.58193559    -0.23200
C1251       C  0.37849120  0.00054112  0.57295677    -0.03200
C1252       C  0.36542232  0.52977681  0.58302285    -0.17700
H1253       H  0.36559342  0.57723443  0.61707070     0.20300
H1254       H  0.45783540  0.98143272  0.61218875     0.18700
H1255       H  0.47755782  0.50902154  0.65165055     0.18600
H1256       H  0.34122723  0.54431074  0.57975496     0.14500
C1257       C  0.24058107  0.83652213  0.59819972     0.29900
C1258       C  0.24534230  0.81068178  0.61337263    -0.36400
C1259       C  0.22252055  0.81289136  0.63023483     0.15900
C1260       C  0.19672314  0.83877278  0.63206550     0.21700
C1261       C  0.19155736  0.86429663  0.61673263    -0.34500
C1262       C  0.21444881  0.86212345  0.59987115     0.15800
O1263       O  0.26140525  0.84160876  0.58226778    -0.26500
C1264       C  0.24818288  0.87055741  0.57346270     0.05600
C1265       C  0.21900108  0.88452587  0.58374508    -0.31400
O1266       O  0.18150666  0.83866192  0.65017549    -0.23200
C1267       C  0.19764431  0.81231128  0.66005575    -0.03200
C1268       C  0.22315290  0.79509205  0.64830086    -0.17700
H1269       H  0.26664239  0.79139062  0.61260383     0.20300
H1270       H  0.17238497  0.88554037  0.61836333     0.18700
H1271       H  0.20489755  0.90895713  0.58056046     0.18600
H1272       H  0.24168112  0.77465051  0.65299958     0.14500
C1273       C  0.22029363  0.50366763  0.09849553     0.29900
C1274       C  0.20000257  0.49330621  0.11548284    -0.36400
C1275       C  0.20289424  0.51487387  0.13278503     0.15900
C1276       C  0.22420479  0.54467698  0.13335749     0.21700
C1277       C  0.24396083  0.55542930  0.11622712    -0.34500
C1278       C  0.24106416  0.53387325  0.09889657     0.15800
O1279       O  0.22508944  0.48496861  0.08176568    -0.26500
C1280       C  0.24790483  0.00348774  0.07089796     0.05600
C1281       C  0.25919968  0.03402944  0.08084054    -0.31400
O1282       O  0.22440294  0.55984615  0.15147071    -0.23200
C1283       C  0.20282022  0.53956237  0.16264129    -0.03200
C1284       C  0.18861829  0.51124485  0.15176318    -0.17700
H1285       H  0.18431305  0.46921739  0.11551428     0.20300
H1286       H  0.26145251  0.57823406  0.11663694     0.18700
H1287       H  0.28055582  0.05176126  0.07643809     0.18600
H1288       H  0.17077620  0.49069209  0.15715629     0.14500
C1289       C  0.13452702  0.58142505  0.43924404     0.29900
C1290       C  0.12935586  0.55698299  0.42346704    -0.36400
C1291       C  0.15211224  0.56036372  0.40662862     0.15900
C1292       C  0.17843516  0.58586191  0.40545293     0.21700
C1293       C  0.18422603  0.60973572  0.42147928    -0.34500
C1294       C  0.16120536  0.60659806  0.43823603     0.15800
O1295       O  0.11297280  0.58636748  0.45483879    -0.26500
C1296       C  0.12622184  0.61479821  0.46406444     0.05600
C1297       C  0.15625603  0.62848071  0.45446417    -0.31400
O1298       O  0.19305029  0.58765588  0.38719512    -0.23200
C1299       C  0.17595982  0.56295399  0.37654333    -0.03200
C1300       C  0.15047296  0.54488233  0.38795187    -0.17700
H1301       H  0.10742875  0.53834340  0.42364656     0.20300
H1302       H  0.20357250  0.63093543  0.42031389     0.18700
H1303       H  0.17028061  0.65281672  0.45790374     0.18600
H1304       H  0.13123927  0.52557508  0.38271033     0.14500
C1305       C  0.38139273  0.55266143  0.40341723     0.29900
C1306       C  0.35866824  0.55935961  0.41996004    -0.36400
C1307       C  0.36657296  0.54119939  0.43810374     0.15900
C1308       C  0.39512196  0.51830518  0.43989265     0.21700
C1309       C  0.41826129  0.51224215  0.42349144    -0.34500
C1310       C  0.41005341  0.52997093  0.40530362     0.15800
O1311       O  0.37702317  0.56408105  0.38455910    -0.26500
C1312       C  0.40312255  0.54832395  0.37424772     0.05600
C1313       C  0.42458302  0.52694085  0.38640346    -0.31400
O1314       O  0.39431809  0.99972664  0.45672619    -0.23200
C1315       C  0.36539200  0.01136305  0.46631763    -0.03200
C1316       C  0.34692497  0.03700967  0.45528189    -0.17700
H1317       H  0.33520947  0.57583357  0.41842898     0.20300
H1318       H  0.43973599  0.49316041  0.42443922     0.18700
H1319       H  0.44695100  0.51067709  0.38184069     0.18600
H1320       H  0.32095611  0.04804091  0.45860635     0.14500
C1321       C  0.12861855  0.79392885  0.09888222     0.29900
C1322       C  0.12235972  0.81808213  0.11466562    -0.36400
C1323       C  0.14663475  0.81719700  0.13085319     0.15900
C1324       C  0.17505279  0.79399642  0.13156764     0.21700
C1325       C  0.18169648  0.77025109  0.11558867    -0.34500
C1326       C  0.15744902  0.77119469  0.09935331     0.15800
O1327       O  0.10716304  0.78763915  0.08343984    -0.26500
C1328       C  0.12265037  0.76080940  0.07376827     0.05600
C1329       C  0.15403575  0.74951395  0.08292808    -0.31400
O1330       O  0.19160848  0.79461064  0.14927932    -0.23200
C1331       C  0.17377176  0.81876556  0.15995525    -0.03200
C1332       C  0.14575076  0.83391325  0.14915263    -0.17700
H1333       H  0.09911894  0.83506418  0.11482814     0.20300
H1334       H  0.20310618  0.75106491  0.11628182     0.18700
H1335       H  0.17038733  0.72695961  0.07889222     0.18600
H1336       H  0.12569374  0.85217962  0.15463445     0.14500
C1337       C  0.45777102  0.62255327  0.09814719     0.29900
C1338       C  0.43218987  0.62767426  0.11349731    -0.36400
C1339       C  0.43178761  0.60242970  0.12928795     0.15900
C1340       C  0.45502701  0.57409333  0.12999040     0.21700
C1341       C  0.48006242  0.56853050  0.11439079    -0.34500
C1342       C  0.48049943  0.59379169  0.09860570     0.15800
O1343       O  0.46516760  0.64476394  0.08311703    -0.26500
C1344       C  0.49271571  0.62981998  0.07364426     0.05600
C1345       C  0.00338444  0.59808189  0.08262702    -0.31400
O1346       O  0.45328953  0.55657768  0.14743937    -0.23200
C1347       C  0.42841776  0.57371647  0.15803276    -0.03200
C1348       C  0.41381938  0.60219462  0.14733626    -0.17700
H1349       H  0.41507859  0.65077486  0.11369032     0.20300
H1350       H  0.99921885  0.54711627  0.11509586     0.18700
H1351       H  0.02607099  0.58178217  0.07867562     0.18600
H1352       H  0.39512275  0.62184488  0.15280926     0.14500
C1353       C  0.21093525  0.87950608  0.43870771     0.29900
C1354       C  0.19228959  0.89009613  0.42118630    -0.36400
C1355       C  0.19423688  0.86708698  0.40447048     0.15900
C1356       C  0.21328627  0.83579289  0.40490457     0.21700
C1357       C  0.23125569  0.82480051  0.42260431    -0.34500
C1358       C  0.22923462  0.84777582  0.43938124     0.15800
O1359       O  0.21671750  0.89920907  0.45493188    -0.26500
C1360       C  0.23839993  0.87965984  0.46642322     0.05600
C1361       C  0.24698455  0.84728844  0.45752545    -0.31400
O1362       O  0.21395966  0.81983265  0.38701628    -0.23200
C1363       C  0.19489582  0.84108331  0.37500294    -0.03200
C1364       C  0.18174519  0.87074873  0.38511136    -0.17700
H1365       H  0.17875947  0.91540556  0.42029416     0.20300
H1366       H  0.24711206  0.80083781  0.42295793     0.18700
H1367       H  0.26655256  0.82815748  0.46262602     0.18600
H1368       H  0.16632595  0.89249107  0.37889104     0.14500
C1369       C  0.38469715  0.83701910  0.13172804     0.29900
C1370       C  0.36456222  0.82924217  0.11432024    -0.36400
C1371       C  0.37499004  0.84650849  0.09630851     0.15900
C1372       C  0.40342790  0.86970515  0.09544341     0.21700
C1373       C  0.42395140  0.87695037  0.11277030    -0.34500
C1374       C  0.41323855  0.86003891  0.13080775     0.15800
O1375       O  0.37832917  0.82559826  0.15040738    -0.26500
C1376       C  0.40304177  0.84167382  0.16159072     0.05600
C1377       C  0.42543960  0.86345046  0.15019118    -0.31400
O1378       O  0.40464155  0.88752838  0.07814406    -0.23200
C1379       C  0.37687910  0.87540451  0.06768939    -0.03200
C1380       C  0.35773375  0.84958157  0.07818175    -0.17700
H1381       H  0.34119620  0.81246176  0.11501286     0.20300
H1382       H  0.44532239  0.89621778  0.11250273     0.18700
H1383       H  0.44742807  0.87956161  0.15545495     0.18600
H1384       H  0.33203707  0.83859169  0.07420581     0.14500
C1385       C  0.46251313  0.79813938  0.40312230     0.29900
C1386       C  0.98820218  0.80162320  0.41849708    -0.36400
C1387       C  0.98603019  0.77716564  0.43459941     0.15900
C1388       C  0.46033538  0.75100673  0.43554007     0.21700
C1389       C  0.43447381  0.74767081  0.42022278    -0.34500
C1390       C  0.43665512  0.77216099  0.40410845     0.15800
O1391       O  0.46145457  0.81627720  0.38591584    -0.26500
C1392       C  0.43449003  0.80187253  0.37572645     0.05600
C1393       C  0.41796389  0.77438797  0.38636770    -0.31400
O1394       O  0.46485833  0.72943567  0.45120637    -0.23200
C1395       C  0.99356318  0.74223341  0.46052445    -0.03200
C1396       C  0.00794069  0.77178329  0.45083609    -0.17700
H1397       H  0.00920848  0.82122948  0.41759515     0.20300
H1398       H  0.41481837  0.72667017  0.42048381     0.18700
H1399       H  0.39676162  0.75713958  0.38123729     0.18600
H1400       H  0.03206709  0.78599176  0.45464643     0.14500
C1401       C  0.92692927  0.31088968  0.35416758     0.80400
N1402       N  0.90335767  0.29123827  0.34325276    -0.77900
C1403       C  0.90072372  0.29569469  0.32278278     0.82800
N1404       N  0.92216035  0.31941327  0.31317876    -0.77900
C1405       C  0.94479837  0.34005995  0.32401813     0.82900
N1406       N  0.94738827  0.33555068  0.34450314    -0.79600
C1407       C  0.90700267  0.33545838  0.18358267     0.80400
N1408       N  0.93241138  0.35333217  0.19410551    -0.77900
C1409       C  0.93805701  0.34621786  0.21410596     0.82800
N1410       N  0.91839714  0.32085370  0.22359358    -0.77900
C1411       C  0.89245107  0.30338785  0.21330094     0.82900
N1412       N  0.88681418  0.31069950  0.19327746    -0.79600
C1413       C  0.68948370  0.33436263  0.35317213     0.80400
N1414       N  0.70787549  0.30829001  0.34347092    -0.77900
C1415       C  0.70146817  0.30118425  0.32346909     0.82800
N1416       N  0.67624529  0.32009466  0.31325800    -0.77900
C1417       C  0.65828754  0.34661532  0.32280625     0.82900
N1418       N  0.66509201  0.35365714  0.34267337    -0.79600
C1419       C  0.92265028  0.06767399  0.18016728     0.80400
N1420       N  0.89957231  0.08852654  0.19068840    -0.77900
C1421       C  0.89836832  0.08726759  0.21133806     0.82800
N1422       N  0.92077088  0.06520407  0.22158811    -0.77900
C1423       C  0.94302297  0.04320986  0.21121489     0.82900
N1424       N  0.94408439  0.04471709  0.19049660    -0.79600
C1425       C  0.96933963  0.36379296  0.31319768     0.42600
N1426       N  0.51005101  0.37960270  0.29219619     0.01500
C1427       C  0.61274990  0.03166438  0.29170293    -0.06400
H1428       H  0.47679070  0.05261576  0.28202580     0.07000
C1429       C  0.48423039  0.48728993  0.21550187    -0.06700
Co1430     Co  0.54851166  0.44493827  0.30546995     0.74200
N1431       N  0.50915387  0.50724805  0.28887783    -0.25900
Co1432     Co  0.54791087  0.50690947  0.26613427     0.74100
C1433       C  0.46782825  0.01998201  0.22242895     0.42700
N1434       N  0.50913178  0.40023808  0.23190010     0.01100
N1435       N  0.50877231  0.50500188  0.24348904     0.01200
N1436       N  0.61103011  0.49263557  0.31803779    -0.46700
H1437       H  0.48097593  0.41105484  0.33435006     0.07000
N1438       N  0.50928057  0.48411570  0.30405322     0.01500
N1439       N  0.58702767  0.50468567  0.24344091     0.01300
C1440       C  0.63058411  0.51676499  0.22350253     0.42900
N1441       N  0.50959043  0.37686543  0.24693545    -0.25300
C1442       C  0.61384393  0.39972174  0.31915805    -0.06300
N1443       N  0.48589109  0.35478432  0.29575125    -0.46400
N1444       N  0.61303248  0.02768584  0.24015350    -0.46700
C1445       C  0.63098590  0.36731314  0.31204869     0.42600
N1446       N  0.58676202  0.48510309  0.30403090     0.01500
N1447       N  0.58716717  0.37759601  0.24681123    -0.25400
N1448       N  0.51049088  0.40445490  0.30631421    -0.25900
N1449       N  0.58665281  0.40042921  0.23153760     0.01200
H1450       H  0.62001003  0.33217727  0.25360513     0.07000
H1451       H  0.61886663  0.46855384  0.20317498     0.07100
N1452       N  0.58668590  0.50810750  0.28881756    -0.25900
N1453       N  0.50916888  0.47984385  0.22954963    -0.25500
N1454       N  0.58800764  0.38031926  0.29195090     0.01500
C1455       C  0.46636887  0.01912444  0.31073697     0.42900
C1456       C  0.48328506  0.35339485  0.24404620    -0.06800
N1457       N  0.58652531  0.47923824  0.22967419    -0.25500
H1458       H  0.47935236  0.47235997  0.20174713     0.07100
N1459       N  0.48420674  0.49065712  0.31779320    -0.46700
H1460       H  0.47771566  0.33053491  0.25352394     0.07100
C1461       C  0.62992946  0.36556652  0.22481079     0.42800
C1462       C  0.48584748  0.39647593  0.32046530    -0.06300
Co1463     Co  0.54868783  0.37797344  0.26948166     0.73800
N1464       N  0.48387233  0.39366659  0.21834576    -0.46500
C1465       C  0.62844280  0.52171582  0.31125829     0.43000
N1466       N  0.61348241  0.35660657  0.29521527    -0.46400
Co1467     Co  0.54776669  0.43986017  0.23023751     0.73900
C1468       C  0.61303694  0.48470100  0.21634921    -0.06800
C1469       C  0.48273454  0.03002788  0.29163434    -0.06300
N1470       N  0.58765522  0.40574631  0.30573835    -0.25900
N1471       N  0.48454936  0.02937649  0.23978609    -0.46600
H1472       H  0.61811888  0.05456093  0.28221488     0.07000
C1473       C  0.61389292  0.35471758  0.24399311    -0.06700
Cl1474     Cl  0.54812935  0.44243626  0.26784141    -0.49800
C1475       C  0.96636457  0.36468572  0.22516601     0.42800
H1476       H  0.61940360  0.41542807  0.33253919     0.07000
N1477       N  0.61151284  0.39375055  0.21770921    -0.46500
C1478       C  0.67803095  0.32357847  0.18212095     0.80400
N1479       N  0.69977302  0.30080926  0.19236151    -0.77900
C1480       C  0.69944433  0.30005376  0.21305814     0.82800
N1481       N  0.67708652  0.32166562  0.22340171    -0.77900
C1482       C  0.65611281  0.34506464  0.21334944     0.82900
N1483       N  0.65634400  0.34578997  0.19270708    -0.79600
C1484       C  0.90786219  0.05280914  0.35188379     0.80400
N1485       N  0.93280149  0.03327310  0.34185661    -0.77900
C1486       C  0.93846697  0.03850805  0.32164583     0.82800
N1487       N  0.91948536  0.06354648  0.31156479    -0.77900
C1488       C  0.89423945  0.08270662  0.32133743     0.82900
N1489       N  0.88838343  0.07733337  0.34153051    -0.79600
C1490       C  0.67883599  0.06038079  0.35404126     0.80400
N1491       N  0.70115382  0.08287581  0.34401753    -0.77900
C1492       C  0.70028902  0.08511510  0.32336762     0.82800
N1493       N  0.67671182  0.06511680  0.31276755    -0.77900
C1494       C  0.65509846  0.04181080  0.32259623     0.82900
N1495       N  0.65601674  0.03967520  0.34324100    -0.79600
C1496       C  0.69477284  0.04683117  0.18413446     0.80400
N1497       N  0.71179028  0.07347306  0.19413527    -0.77900
C1498       C  0.70259357  0.08155894  0.21364332     0.82800
N1499       N  0.67610221  0.06316846  0.22301825    -0.77900
C1500       C  0.65935892  0.03629510  0.21322450     0.82900
N1501       N  0.66878751  0.02817623  0.19382753    -0.79600
C1502       C  0.72174902  0.27313377  0.31296140     0.42600
N1503       N  0.73537097  0.23137008  0.29215785     0.01500
C1504       C  0.88642344  0.12690442  0.29113075    -0.06400
H1505       H  0.91127157  0.26129323  0.28190161     0.07000
C1506       C  0.83987666  0.25789436  0.21618645    -0.06700
Co1507     Co  0.80101224  0.19249127  0.30512534     0.74200
N1508       N  0.86389718  0.23084557  0.28826886    -0.25900
Co1509     Co  0.86262322  0.19239620  0.26566602     0.74100
C1510       C  0.87208729  0.27528110  0.22347050     0.42700
N1511       N  0.75509065  0.23065802  0.23132534     0.01100
N1512       N  0.85999349  0.23154599  0.24315919     0.01200
N1513       N  0.84683284  0.12865964  0.31720209    -0.46700
H1514       H  0.77058417  0.26155846  0.33309677     0.07000
N1515       N  0.84103172  0.23087117  0.30355886     0.01500
N1516       N  0.86060084  0.15363672  0.24307726     0.01300
C1517       C  0.87526081  0.11205554  0.22248084     0.42900
N1518       N  0.73216805  0.23088005  0.24660220    -0.25300
C1519       C  0.75473459  0.12848545  0.31971758    -0.06300
N1520       N  0.71121919  0.25627136  0.29584455    -0.46400
N1521       N  0.88506762  0.12902114  0.23963563    -0.46700
C1522       C  0.72221903  0.11136538  0.31261488     0.42600
N1523       N  0.84043538  0.15380114  0.30353568     0.01500
N1524       N  0.73229155  0.15350360  0.24656710    -0.25400
N1525       N  0.76110706  0.23096709  0.30586722    -0.25900
N1526       N  0.75560687  0.15354287  0.23146642     0.01200
H1527       H  0.68636577  0.12088027  0.25309672     0.07000
H1528       H  0.82736829  0.12383255  0.20158899     0.07100
N1529       N  0.86346519  0.15361571  0.28831485    -0.25900
N1530       N  0.83438783  0.23124674  0.22939859    -0.25500
N1531       N  0.73576374  0.15347688  0.29204390     0.01500
C1532       C  0.87824827  0.27200397  0.31071481     0.42900
C1533       C  0.70876503  0.25713671  0.24362257    -0.06800
N1534       N  0.83534220  0.15409618  0.22911706    -0.25500
H1535       H  0.82370180  0.26389108  0.20299860     0.07100
N1536       N  0.84918274  0.25462281  0.31766284    -0.46700
H1537       H  0.68604047  0.26297403  0.25318224     0.07100
C1538       C  0.72042136  0.11056429  0.22453862     0.42800
C1539       C  0.75471791  0.25632787  0.31969882    -0.06300
Co1540     Co  0.73318420  0.19232657  0.26936123     0.73800
N1541       N  0.74805686  0.25524658  0.21741076    -0.46500
C1542       C  0.87527701  0.11055075  0.31021895     0.43000
N1543       N  0.71184082  0.12835589  0.29551037    -0.46400
Co1544     Co  0.79503762  0.19234866  0.22989647     0.73900
C1545       C  0.84253839  0.12893741  0.21526425    -0.06800
C1546       C  0.88814667  0.25628785  0.29132301    -0.06300
N1547       N  0.76116951  0.15405496  0.30592410    -0.25900
N1548       N  0.88321287  0.25750638  0.24015834    -0.46600
H1549       H  0.90896685  0.12075714  0.28149886     0.07000
C1550       C  0.70907868  0.12699344  0.24356560    -0.06700
Cl1551     Cl  0.79792389  0.19240454  0.26751503    -0.49800
C1552       C  0.71944619  0.27315274  0.22435685     0.42800
H1553       H  0.77034628  0.12321244  0.33322703     0.07000
N1554       N  0.74928843  0.12845819  0.21782273    -0.46500
N1555       N  0.81200524  0.43657942  0.55100906    -0.36400
N1556       N  0.77038079  0.39902684  0.51999911    -0.57000
N1557       N  0.80312517  0.44412296  0.48898069    -0.36400
N1558       N  0.84750971  0.47889118  0.51975917    -0.57000
C1559       C  0.79600918  0.41158076  0.56269445     0.27200
C1560       C  0.83754604  0.45228951  0.56242835     0.27200
C1561       C  0.78687300  0.41959913  0.47713898     0.27100
C1562       C  0.82661895  0.46184788  0.47703280     0.27100
C1563       C  0.75429184  0.38572834  0.53679451     0.35800
C1564       C  0.75120526  0.38804293  0.50376639     0.35800
C1565       C  0.86158448  0.49473444  0.53635044     0.35800
C1566       C  0.85657663  0.49898822  0.50347896     0.35800
C1567       C  0.81153040  0.41151772  0.58187695    -0.21700
C1568       C  0.83769281  0.43701218  0.58168805    -0.21700
C1569       C  0.79995964  0.42210896  0.45742081    -0.21700
C1570       C  0.82488984  0.44868126  0.45734364    -0.21700
C1571       C  0.72504838  0.36552060  0.53115593    -0.22800
C1572       C  0.72314494  0.36694407  0.51021944    -0.22800
C1573       C  0.88026829  0.52484272  0.53051379    -0.22800
C1574       C  0.87703679  0.52756498  0.50968130    -0.22800
C1575       C  0.76645444  0.39026085  0.55705006    -0.18100
C1576       C  0.85903297  0.48161641  0.55655177    -0.18100
C1577       C  0.84849257  0.49063994  0.48303062    -0.18100
C1578       C  0.75935284  0.39608748  0.48321764    -0.18100
H1579       H  0.80445592  0.39521005  0.59485606     0.14800
H1580       H  0.85435825  0.44395354  0.59450420     0.14800
H1581       H  0.79229956  0.40650930  0.44433036     0.14800
H1582       H  0.83991833  0.45732799  0.44416225     0.14800
H1583       H  0.70710535  0.35105440  0.54107080     0.13100
H1584       H  0.70342762  0.35392657  0.50083481     0.13100
H1585       H  0.89338175  0.04383962  0.54022361     0.13100
H1586       H  0.88757752  0.04866929  0.50013761     0.13100
H1587       H  0.80433563  0.44390884  0.53651634     0.26300
H1588       H  0.79708963  0.44988630  0.50391973     0.26300
N1589       N  0.55825100  0.19458718  0.05176628    -0.36400
N1590       N  0.60124888  0.23119183  0.02064797    -0.57000
N1591       N  0.56911673  0.18595341  0.98961884    -0.36400
N1592       N  0.52311713  0.15235468  0.02037041    -0.57000
C1593       C  0.57485934  0.21883554  0.06358273     0.27200
C1594       C  0.53374837  0.17760923  0.06342438     0.27200
C1595       C  0.58665629  0.20966338  0.97773360     0.27100
C1596       C  0.54579905  0.16849689  0.97753577     0.27100
C1597       C  0.61609297  0.24568116  0.03741501     0.35800
C1598       C  0.62091338  0.24204021  0.00451386     0.35800
C1599       C  0.50862487  0.13656832  0.03696539     0.35800
C1600       C  0.51364422  0.13274040  0.00402905     0.35800
C1601       C  0.56086973  0.21698705  0.08315548    -0.21700
C1602       C  0.53504268  0.19116229  0.08304335    -0.21700
C1603       C  0.57473383  0.20673036  0.95781505    -0.21700
C1604       C  0.54910583  0.18088783  0.95768433    -0.21700
C1605       C  0.64504652  0.26645118  0.03181436    -0.22800
C1606       C  0.64811052  0.26408648  0.01098196    -0.22800
C1607       C  0.98931974  0.10698211  0.03103742    -0.22800
C1608       C  0.99256963  0.10453264  0.01020292    -0.22800
C1609       C  0.60340055  0.24143708  0.05763186    -0.18100
C1610       C  0.51154430  0.14899859  0.05729398    -0.18100
C1611       C  0.52235713  0.14085919  0.98355016    -0.18100
C1612       C  0.61390032  0.23326491  0.98398308    -0.18100
H1613       H  0.56871568  0.23220942  0.09635021     0.14800
H1614       H  0.51949715  0.18296632  0.09612201     0.14800
H1615       H  0.58344213  0.22171704  0.94463677     0.14800
H1616       H  0.53458008  0.17232082  0.94435796     0.14800
H1617       H  0.66215046  0.28182826  0.04167850     0.13100
H1618       H  0.66796799  0.27720411  0.00166586     0.13100
H1619       H  0.97434606  0.08904202  0.04068349     0.13100
H1620       H  0.98063077  0.08440625  0.00067965     0.13100
H1621       H  0.56439259  0.18898269  0.03683506     0.26300
H1622       H  0.57399978  0.18072503  0.00482939     0.26300
N1623       N  0.56008928  0.18080488  0.48430522    -0.36400
N1624       N  0.59847399  0.14275985  0.51656475    -0.57000
N1625       N  0.55918643  0.18365097  0.54657985    -0.36400
N1626       N  0.51728543  0.21833854  0.51454017    -0.57000
C1627       C  0.57734677  0.15597806  0.47316885     0.27200
C1628       C  0.53537644  0.19613021  0.47209615     0.27200
C1629       C  0.57558014  0.15973547  0.55881379     0.27100
C1630       C  0.53354347  0.19954932  0.55776839     0.27100
C1631       C  0.61664897  0.13026128  0.50034926     0.35800
C1632       C  0.61626498  0.13199143  0.53336849     0.35800
C1633       C  0.50565720  0.23539120  0.49766824     0.35800
C1634       C  0.50513080  0.23685607  0.53071640     0.35800
C1635       C  0.56373787  0.15599506  0.45351420    -0.21700
C1636       C  0.53739072  0.18123135  0.45284331    -0.21700
C1637       C  0.56034232  0.16074596  0.57805748    -0.21700
C1638       C  0.53393391  0.18577427  0.57740937    -0.21700
C1639       C  0.64587910  0.11085209  0.50690547    -0.22800
C1640       C  0.64566342  0.11201745  0.52784941    -0.22800
C1641       C  0.98519452  0.26445521  0.50317042    -0.22800
C1642       C  0.98493196  0.26541783  0.52413327    -0.22800
C1643       C  0.60614979  0.13443362  0.47979715    -0.18100
C1644       C  0.51221183  0.22434758  0.47742048    -0.18100
C1645       C  0.51130111  0.22774123  0.55131040    -0.18100
C1646       C  0.60518813  0.13837766  0.55358427    -0.18100
H1647       H  0.57205817  0.13976775  0.44081128     0.14800
H1648       H  0.52170142  0.18794580  0.43956527     0.14800
H1649       H  0.56762007  0.14532677  0.59134020     0.14800
H1650       H  0.51717409  0.19309243  0.59012582     0.14800
H1651       H  0.66513832  0.09699010  0.49759019     0.13100
H1652       H  0.66465337  0.09923523  0.53785881     0.13100
H1653       H  0.97188450  0.28303385  0.49314359     0.13100
H1654       H  0.97137939  0.28483327  0.53345327     0.13100
H1655       H  0.56610345  0.18814680  0.49904475     0.26300
H1656       H  0.56655014  0.19047395  0.53190747     0.26300
N1657       N  0.81298105  0.44578874  0.98450324    -0.36400
N1658       N  0.85375292  0.40565579  0.01462781    -0.57000
N1659       N  0.81383923  0.44185543  0.04674045    -0.36400
N1660       N  0.77528144  0.48410499  0.01685556    -0.57000
C1661       C  0.83647905  0.42918252  0.97207622     0.27200
C1662       C  0.79526475  0.47024523  0.97324712     0.27200
C1663       C  0.83964186  0.42567946  0.05772712     0.27100
C1664       C  0.79836994  0.46632991  0.05893077     0.27100
C1665       C  0.86518904  0.38877832  0.99772696     0.35800
C1666       C  0.86553430  0.38672642  0.03077146     0.35800
C1667       C  0.75700766  0.49675036  0.00068260     0.35800
C1668       C  0.75742921  0.49441261  0.03372117     0.35800
C1669       C  0.83305381  0.44293132  0.95252627    -0.21700
C1670       C  0.80730374  0.46874834  0.95328115    -0.21700
C1671       C  0.84041595  0.44001774  0.07717960    -0.21700
C1672       C  0.81443768  0.46551808  0.07793700    -0.21700
C1673       C  0.88497284  0.35915143  0.00319541    -0.22800
C1674       C  0.88507333  0.35779261  0.02415743    -0.22800
C1675       C  0.72625342  0.01431594  0.00713310    -0.22800
C1676       C  0.72628932  0.01262978  0.02807883    -0.22800
C1677       C  0.85975177  0.40089286  0.97752612    -0.18100
C1678       C  0.76727784  0.49267382  0.98007133    -0.18100
C1679       C  0.76867823  0.48778226  0.05390897    -0.18100
C1680       C  0.86059409  0.39649319  0.05132673    -0.18100
H1681       H  0.84704897  0.43492717  0.93889520     0.14800
H1682       H  0.79813432  0.48419344  0.94039672     0.14800
H1683       H  0.85743339  0.43259270  0.08976411     0.14800
H1684       H  0.80788830  0.48124999  0.09116997     0.14800
H1685       H  0.89819996  0.34061893  0.99315975     0.13100
H1686       H  0.89845623  0.33813534  0.03345021     0.13100
H1687       H  0.70665809  0.02780312  0.99783734     0.13100
H1688       H  0.70683446  0.02459330  0.03810670     0.13100
H1689       H  0.80817915  0.43977100  0.99958098     0.26300
H1690       H  0.80548992  0.43470833  0.03231754     0.26300
C1691       C  0.94360368  0.31507375  0.85440839     0.80400
N1692       N  0.92382392  0.29013915  0.84458843    -0.77900
C1693       C  0.92645107  0.28649968  0.82404576     0.82800
N1694       N  0.94858802  0.30809860  0.81335150    -0.77900
C1695       C  0.96937460  0.33206028  0.82310807     0.82900
N1696       N  0.96652008  0.33579820  0.84360155    -0.79600
C1697       C  0.96331959  0.07584687  0.85243064     0.80400
N1698       N  0.98233200  0.05074921  0.84222864    -0.77900
C1699       C  0.97529908  0.04392933  0.82233378     0.82800
N1700       N  0.94932649  0.06226435  0.81266728    -0.77900
C1701       C  0.93072617  0.08779044  0.82249318     0.82900
N1702       N  0.93756121  0.09451711  0.84246544    -0.79600
C1703       C  0.69376401  0.06656344  0.85459111     0.80400
N1704       N  0.71634814  0.08724370  0.84348897    -0.77900
C1705       C  0.71688576  0.08495049  0.82284507     0.82800
N1706       N  0.69514178  0.06155627  0.81335039    -0.77900
C1707       C  0.67184564  0.04157227  0.82425174     0.82900
N1708       N  0.67133608  0.04391102  0.84488586    -0.79600
C1709       C  0.68297233  0.29389407  0.85351556     0.80400
N1710       N  0.70731963  0.27457935  0.84295513    -0.77900
C1711       C  0.71380135  0.28157765  0.82296675     0.82800
N1712       N  0.69555247  0.30800295  0.81344309    -0.77900
C1713       C  0.67041390  0.32680156  0.82375264     0.82900
N1714       N  0.66436459  0.31978934  0.84379465    -0.79600
C1715       C  0.67539158  0.08128053  0.68450749     0.80400
N1716       N  0.70209700  0.10002467  0.69341027    -0.77900
C1717       C  0.71204914  0.09267628  0.71288121     0.82800
N1718       N  0.69520065  0.06658073  0.72342626    -0.77900
C1719       C  0.66806572  0.04831066  0.71477206     0.82900
N1720       N  0.65832619  0.05559425  0.69530002    -0.79600
C1721       C  0.94788135  0.06050794  0.68010019     0.80400
N1722       N  0.92724198  0.08382434  0.69057026    -0.77900
C1723       C  0.92908000  0.08549062  0.71121860     0.82800
N1724       N  0.95138605  0.06333586  0.72145171    -0.77900
C1725       C  0.97318864  0.04094180  0.71108933     0.82900
N1726       N  0.97118607  0.03943014  0.69042867    -0.79600
C1727       C  0.90229511  0.26279378  0.81300049     0.42600
N1728       N  0.86163829  0.24769465  0.79187555     0.01500
C1729       C  0.75830635  0.09567229  0.79140432    -0.06400
H1730       H  0.89305018  0.07351956  0.78260103     0.07000
C1731       C  0.88808777  0.14152637  0.71535676    -0.06700
Co1732     Co  0.82236150  0.18251399  0.80491848     0.74200
N1733       N  0.86137066  0.12003251  0.78862520    -0.25900
Co1734     Co  0.82317711  0.12118118  0.76556647     0.74100
C1735       C  0.90457328  0.10868157  0.72249546     0.42700
N1736       N  0.86324007  0.22827439  0.73143309     0.01100
N1737       N  0.86279724  0.12338803  0.74314260     0.01200
N1738       N  0.75987307  0.13482130  0.81747950    -0.46700
H1739       H  0.89003058  0.21519581  0.83399687     0.07000
N1740       N  0.86110915  0.14308486  0.80374684     0.01500
N1741       N  0.78468257  0.12396516  0.74260660     0.01300
C1742       C  0.74173364  0.11174200  0.72237052     0.42900
N1743       N  0.86281709  0.25128754  0.74656862    -0.25300
C1744       C  0.75755943  0.22795115  0.81876573    -0.06300
N1745       N  0.88596794  0.27223865  0.79554289    -0.46400
N1746       N  0.75878738  0.10081711  0.73935172    -0.46700
C1747       C  0.74081876  0.26078645  0.81193226     0.42600
N1748       N  0.78385767  0.14267241  0.80332363     0.01500
N1749       N  0.78531480  0.25097678  0.74623743    -0.25400
N1750       N  0.86081379  0.22259904  0.80593565    -0.25900
N1751       N  0.78579694  0.22847386  0.73087598     0.01200
H1752       H  0.75306179  0.29665915  0.75308807     0.07000
H1753       H  0.75396751  0.15995750  0.70189381     0.07100
N1754       N  0.78391053  0.11982587  0.78811245    -0.25900
N1755       N  0.86275868  0.14871290  0.72919525    -0.25500
N1756       N  0.78351628  0.24767366  0.79151974     0.01500
C1757       C  0.90288640  0.10692053  0.81132807     0.42900
C1758       C  0.88913533  0.27482794  0.74368427    -0.06800
N1759       N  0.78554572  0.14943851  0.72875528    -0.25500
H1760       H  0.89335789  0.15666653  0.70165959     0.07100
N1761       N  0.88536380  0.13598378  0.81785595    -0.46700
H1762       H  0.89465700  0.29753622  0.75319727     0.07100
C1763       C  0.74317925  0.26409715  0.72413268     0.42800
C1764       C  0.88543303  0.23007772  0.82013797    -0.06300
Co1765     Co  0.82332859  0.25001553  0.76906009     0.73800
N1766       N  0.88839717  0.23524955  0.71780089    -0.46500
C1767       C  0.74251738  0.10572542  0.81084360     0.43000
N1768       N  0.75836160  0.27164956  0.79503170    -0.46400
Co1769     Co  0.82440632  0.18879711  0.72962812     0.73900
C1770       C  0.75946123  0.14383676  0.71518116    -0.06800
C1771       C  0.88722458  0.09632246  0.79198850    -0.06300
N1772       N  0.78357251  0.22194028  0.80521132    -0.25900
N1773       N  0.88729398  0.09882295  0.73964124    -0.46600
H1774       H  0.75319231  0.07259097  0.78211128     0.07000
C1775       C  0.75900111  0.27426229  0.74340881    -0.06700
Cl1776     Cl  0.82335899  0.18560493  0.76729232    -0.49800
C1777       C  0.90593252  0.26410979  0.72465153     0.42800
H1778       H  0.75198999  0.21202565  0.83212778     0.07000
N1779       N  0.76124893  0.23578979  0.71696721    -0.46500
C1780       C  0.96576291  0.29435734  0.68317702     0.80400
N1781       N  0.98586310  0.31886179  0.69307973    -0.77900
C1782       C  0.97986147  0.32587322  0.71307820     0.82800
N1783       N  0.95377660  0.30814395  0.72320226    -0.77900
C1784       C  0.93418646  0.28300246  0.71356331     0.82900
N1785       N  0.94005456  0.27635601  0.69350767    -0.79600
C1786       C  0.69360053  0.30733825  0.68225288     0.80400
N1787       N  0.67205473  0.32948804  0.69297135    -0.77900
C1788       C  0.67296517  0.32947366  0.71363941     0.82800
N1789       N  0.69582747  0.30769752  0.72353248    -0.77900
C1790       C  0.71672127  0.28488009  0.71302314     0.82900
N1791       N  0.71586309  0.28488700  0.69235789    -0.79600
C1792       C  0.64974173  0.35459092  0.81333387     0.42600
N1793       N  0.63593662  0.39667129  0.79277603     0.01500
C1794       C  0.98399253  0.00033661  0.79193340    -0.06400
H1795       H  0.95963823  0.36727953  0.78218841     0.07000
C1796       C  0.53243924  0.37142285  0.71639139    -0.06700
Co1797     Co  0.57006882  0.43518251  0.80581684     0.74200
N1798       N  0.50728847  0.39712467  0.78865612    -0.25900
Co1799     Co  0.00893476  0.43590605  0.76608893     0.74100
C1800       C  0.00004464  0.35388385  0.72342531     0.42700
N1801       N  0.61699298  0.39815721  0.73216483     0.01100
N1802       N  0.51190323  0.39711182  0.74342243     0.01200
N1803       N  0.52343368  0.99848707  0.81803024    -0.46700
H1804       H  0.60081233  0.36538902  0.83358778     0.07000
N1805       N  0.52985765  0.39688388  0.80407217     0.01500
N1806       N  0.01120605  0.47504521  0.74350229     0.01300
C1807       C  0.99630874  0.01611655  0.72231048     0.42900
N1808       N  0.63976694  0.39769671  0.74747122    -0.25300
C1809       C  0.61699105  0.99854701  0.82074431    -0.06300
N1810       N  0.66024023  0.37188844  0.79632910    -0.46400
N1811       N  0.98649365  0.99923594  0.73958715    -0.46700
C1812       C  0.64977911  0.01543501  0.81372465     0.42600
N1813       N  0.53050664  0.47389394  0.80422841     0.01500
N1814       N  0.63957328  0.47519070  0.74762617    -0.25400
N1815       N  0.61010222  0.39666222  0.80646391    -0.25900
N1816       N  0.61631166  0.47534417  0.73254167     0.01200
H1817       H  0.68462926  0.00903762  0.75448395     0.07000
H1818       H  0.54472684  0.00480858  0.70173221     0.07100
N1819       N  0.00764420  0.47423302  0.78893598    -0.25900
N1820       N  0.53775298  0.39769460  0.72977974    -0.25500
N1821       N  0.63561189  0.47426449  0.79296624     0.01500
C1822       C  0.49193207  0.35622100  0.81122110     0.42900
C1823       C  0.66308894  0.37131902  0.74456940    -0.06800
N1824       N  0.53669757  0.47479675  0.72964363    -0.25500
H1825       H  0.54883707  0.36577974  0.70324115     0.07100
N1826       N  0.52109459  0.37326125  0.81824100    -0.46700
H1827       H  0.68566758  0.36526112  0.75419135     0.07100
C1828       C  0.65038773  0.01970364  0.72602945     0.42800
C1829       C  0.61662789  0.37101233  0.82018258    -0.06300
Co1830     Co  0.63840213  0.43595471  0.77022294     0.73800
N1831       N  0.62409574  0.37368496  0.71828952    -0.46500
C1832       C  0.99453433  0.01617678  0.81123042     0.43000
N1833       N  0.65992641  0.99896410  0.79649859    -0.46400
Co1834     Co  0.57706629  0.43655262  0.73063023     0.73900
C1835       C  0.52944725  0.99971251  0.71540795    -0.06800
C1836       C  0.98267941  0.37195519  0.79168409    -0.06300
N1837       N  0.61010808  0.47356147  0.80682716    -0.25900
N1838       N  0.98867681  0.37127930  0.74015858    -0.46600
H1839       H  0.96128871  0.00623138  0.78237799     0.07000
C1840       C  0.66212773  0.00277168  0.74487187    -0.06700
Cl1841     Cl  0.57362010  0.43591640  0.76820711    -0.49800
C1842       C  0.65255568  0.35554320  0.72527748     0.42800
H1843       H  0.60149566  0.00349503  0.83433751     0.07000
N1844       N  0.62200245  0.00147939  0.71913365    -0.46500
C1845       C  0.73931494  0.04653971  0.93944784     0.29900
C1846       C  0.74475877  0.07066447  0.92341623    -0.36400
C1847       C  0.72145261  0.06770408  0.90681872     0.15900
C1848       C  0.69438613  0.04293933  0.90613662     0.21700
C1849       C  0.68820325  0.01963949  0.92246060    -0.34500
C1850       C  0.71174150  0.02230746  0.93894130     0.15800
O1851       O  0.76130939  0.04078743  0.95476038    -0.26500
C1852       C  0.74753995  0.51282623  0.96431886     0.05600
C1853       C  0.71671123  0.50026365  0.95515297    -0.31400
O1854       O  0.67946659  0.04096975  0.88800209    -0.23200
C1855       C  0.69704188  0.06486127  0.87691559    -0.03200
C1856       C  0.72317142  0.08261550  0.88792218    -0.17700
H1857       H  0.76730501  0.08855756  0.92317953     0.20300
H1858       H  0.66836332  0.49913447  0.92161039     0.18700
H1859       H  0.70187890  0.47650255  0.95890546     0.18600
H1860       H  0.74285155  0.10120810  0.88228420     0.14500
C1861       C  0.89119354  0.34830425  0.93722923     0.29900
C1862       C  0.88964436  0.32057697  0.92302829    -0.36400
C1863       C  0.91133198  0.32430758  0.90572256     0.15900
C1864       C  0.93321164  0.35325869  0.90264701     0.21700
C1865       C  0.93514931  0.38075213  0.91697422    -0.34500
C1866       C  0.91339743  0.37705774  0.93424140     0.15800
O1867       O  0.87059993  0.35195529  0.95339980    -0.26500
C1868       C  0.87987841  0.38336127  0.96090938     0.05600
C1869       C  0.90662274  0.40001292  0.94973024    -0.31400
O1870       O  0.94874871  0.35286873  0.88461929    -0.23200
C1871       C  0.93674382  0.32327135  0.87599448    -0.03200
C1872       C  0.91347311  0.30435555  0.88847958    -0.17700
H1873       H  0.87155342  0.29844748  0.92488056     0.20300
H1874       H  0.95128717  0.40414040  0.91440406     0.18700
H1875       H  0.91753552  0.42630088  0.95192305     0.18600
H1876       H  0.89868343  0.28053750  0.88489496     0.14500
C1877       C  0.63166125  0.09417787  0.59791244     0.29900
C1878       C  0.62610016  0.07172124  0.61474332    -0.36400
C1879       C  0.64469467  0.08051515  0.63257649     0.15900
C1880       C  0.66751655  0.10914651  0.63369247     0.21700
C1881       C  0.67351525  0.13119136  0.61679812    -0.34500
C1882       C  0.65477711  0.12258544  0.59903312     0.15800
O1883       O  0.61333515  0.09397490  0.58076345    -0.26500
C1884       C  0.62527249  0.12228978  0.57066931     0.05600
C1885       C  0.65114409  0.14096746  0.58129315    -0.31400
O1886       O  0.68101023  0.11342787  0.65205628    -0.23200
C1887       C  0.66659091  0.08727864  0.66292416    -0.03200
C1888       C  0.64374594  0.06593528  0.65159416    -0.17700
H1889       H  0.60726236  0.05000422  0.61427440     0.20300
H1890       H  0.69046536  0.15435379  0.61769975     0.18700
H1891       H  0.66261098  0.16647001  0.57744495     0.18600
H1892       H  0.62864200  0.04307817  0.65665396     0.14500
C1893       C  0.96120199  0.27081968  0.63152565     0.29900
C1894       C  0.94755417  0.25374641  0.61421116    -0.36400
C1895       C  0.96767015  0.25729650  0.59627221     0.15900
C1896       C  0.99923779  0.27603379  0.59555815     0.21700
C1897       C  0.01251440  0.29358624  0.61274337    -0.34500
C1898       C  0.99232078  0.29022972  0.63059302     0.15800
O1899       O  0.94783055  0.26946944  0.65011426    -0.26500
C1900       C  0.97058531  0.28845484  0.66118005     0.05600
C1901       C  0.99872039  0.30210653  0.64980010    -0.31400
O1902       O  0.51663711  0.27122851  0.57838053    -0.23200
C1903       C  0.49583415  0.24964446  0.56770847    -0.03200
C1904       C  0.96473736  0.24037335  0.57800862    -0.17700
H1905       H  0.92376431  0.23756912  0.61489540     0.20300
H1906       H  0.53779504  0.30738233  0.61247550     0.18700
H1907       H  0.02098136  0.31789691  0.65501075     0.18600
H1908       H  0.94553154  0.22026588  0.57383033     0.14500
C1909       C  0.66245474  0.24997605  0.93967137     0.29900
C1910       C  0.68079382  0.23918101  0.92212166    -0.36400
C1911       C  0.67802305  0.26161635  0.90512406     0.15900
C1912       C  0.65849805  0.29261275  0.90530227     0.21700
C1913       C  0.64069102  0.30380471  0.92301563    -0.34500
C1914       C  0.64357877  0.28138261  0.94009485     0.15800
O1915       O  0.65725401  0.23050739  0.95612476    -0.26500
C1916       C  0.63531283  0.24985183  0.96750580     0.05600
C1917       C  0.62610463  0.28193203  0.95834405    -0.31400
O1918       O  0.65759876  0.30821728  0.88724626    -0.23200
C1919       C  0.67701537  0.28701016  0.87540842    -0.03200
C1920       C  0.69047176  0.25770182  0.88577532    -0.17700
H1921       H  0.69476069  0.21409868  0.92144538     0.20300
H1922       H  0.62442605  0.32750156  0.92320218     0.18700
H1923       H  0.60608212  0.30067839  0.96329246     0.18600
H1924       H  0.70631076  0.23613636  0.87977125     0.14500
C1925       C  0.96430232  0.10077246  0.90406185     0.29900
C1926       C  0.95342366  0.11914836  0.92159637    -0.36400
C1927       C  0.97471903  0.11455384  0.93900333     0.15900
C1928       C  0.00486015  0.09359060  0.93907438     0.21700
C1929       C  0.01527149  0.07464057  0.92169287    -0.34500
C1930       C  0.99393186  0.07913440  0.90435243     0.15800
O1931       O  0.94957914  0.10275527  0.88581005    -0.26500
C1932       C  0.96997679  0.08193414  0.87430143     0.05600
C1933       C  0.99789005  0.06650534  0.88508264    -0.31400
O1934       O  0.52385384  0.09740215  0.95581928    -0.23200
C1935       C  0.00535549  0.12051890  0.96687498    -0.03200
C1936       C  0.97437510  0.13187790  0.95721137    -0.15700
H1937       H  0.93084819  0.13699422  0.92143380     0.20300
H1938       H  0.53938505  0.05892051  0.92139696     0.18700
H1939       H  0.01851303  0.04904503  0.87942861     0.18600
H1940       H  0.95675527  0.15310560  0.96182995     0.14500
C1941       C  0.91237065  0.05310382  0.63083800     0.29900
C1942       C  0.88657370  0.05812416  0.61559177    -0.36400
C1943       C  0.88791168  0.03456270  0.59906525     0.15900
C1944       C  0.91319892  0.50764654  0.59756025     0.21700
C1945       C  0.93931934  0.50304164  0.61265210    -0.34500
C1946       C  0.93759601  0.02664013  0.62927546     0.15800
O1947       O  0.91396943  0.06990428  0.64844542    -0.26500
C1948       C  0.94071712  0.05416447  0.65828424     0.05600
C1949       C  0.95652903  0.02720685  0.64698517    -0.31400
O1950       O  0.90761477  0.48665897  0.58180615    -0.23200
C1951       C  0.87876124  0.50023641  0.57293993    -0.03200
C1952       C  0.86538927  0.03028839  0.58296528    -0.17700
H1953       H  0.86597638  0.07806547  0.61693256     0.20300
H1954       H  0.95852346  0.48167112  0.61197359     0.18700
H1955       H  0.97724810  0.00901178  0.65172185     0.18600
H1956       H  0.84138083  0.04506383  0.57960709     0.14500
C1957       C  0.74033908  0.33728707  0.59841781     0.29900
C1958       C  0.74525429  0.31143849  0.61355658    -0.36400
C1959       C  0.72229414  0.31333169  0.63035971     0.15900
C1960       C  0.69625871  0.33897268  0.63219371     0.21700
C1961       C  0.69095695  0.36454506  0.61688994    -0.34500
C1962       C  0.71396985  0.36265150  0.60006248     0.15800
O1963       O  0.76112539  0.34249911  0.58249491    -0.26500
C1964       C  0.74765701  0.37128425  0.57365095     0.05600
C1965       C  0.71834363  0.38505338  0.58391005    -0.31400
O1966       O  0.68093613  0.33858196  0.65027939    -0.23200
C1967       C  0.69725112  0.31228335  0.66012400    -0.03200
C1968       C  0.72295934  0.29537792  0.64836880    -0.17700
H1969       H  0.76671984  0.29233005  0.61279054     0.20300
H1970       H  0.67155424  0.38558453  0.61850498     0.18700
H1971       H  0.70399748  0.40932414  0.58067416     0.18600
H1972       H  0.74163883  0.27505829  0.65304424     0.14500
C1973       C  0.71976101  0.00355746  0.09836912     0.29900
C1974       C  0.69958695  0.99323265  0.11540011    -0.36400
C1975       C  0.70301966  0.01452606  0.13277557     0.15900
C1976       C  0.72473200  0.04403845  0.13338285     0.21700
C1977       C  0.74446371  0.05470409  0.11623053    -0.34500
C1978       C  0.74099501  0.03344154  0.09881881     0.15800
O1979       O  0.72406493  0.98500850  0.08154684    -0.26500
C1980       C  0.74875413  0.50368442  0.07111431     0.05600
C1981       C  0.75949315  0.53449541  0.08098299    -0.31400
O1982       O  0.72510874  0.05916165  0.15150597    -0.23200
C1983       C  0.70324284  0.03913181  0.16264412    -0.03200
C1984       C  0.68872765  0.01099638  0.15174716    -0.17700
H1985       H  0.68352145  0.96939122  0.11538682     0.20300
H1986       H  0.76226457  0.07726976  0.11665768     0.18700
H1987       H  0.78054813  0.55255804  0.07655200     0.18600
H1988       H  0.67052756  0.99072152  0.15709531     0.14500
C1989       C  0.63371270  0.08152132  0.43899139     0.29900
C1990       C  0.62826794  0.05723937  0.42314185    -0.36400
C1991       C  0.65115683  0.06042576  0.40633042     0.15900
C1992       C  0.67779202  0.08561235  0.40525179     0.21700
C1993       C  0.68375802  0.10935660  0.42130615    -0.34500
C1994       C  0.66067987  0.10638586  0.43803494     0.15800
O1995       O  0.61229574  0.08657923  0.45464736    -0.26500
C1996       C  0.62594919  0.11476698  0.46394932     0.05600
C1997       C  0.65607919  0.12817259  0.45433119    -0.31400
O1998       O  0.69271461  0.08720722  0.38707575    -0.23200
C1999       C  0.67553845  0.06268447  0.37635203    -0.03200
C2000       C  0.64963284  0.04492883  0.38764124    -0.17700
H2001       H  0.60615970  0.03881094  0.42328103     0.20300
H2002       H  0.70339168  0.13030160  0.42020935     0.18700
H2003       H  0.67041746  0.15230742  0.45781318     0.18600
H2004       H  0.63029376  0.02579461  0.38231578     0.14500
C2005       C  0.88092514  0.05237480  0.40310305     0.29900
C2006       C  0.85819901  0.05895989  0.41967336    -0.36400
C2007       C  0.86621810  0.04078683  0.43781103     0.15900
C2008       C  0.89477700  0.01789843  0.43953923     0.21700
C2009       C  0.91783048  0.01186897  0.42310202    -0.34500
C2010       C  0.90960840  0.02970794  0.40495989     0.15800
O2011       O  0.87665587  0.06397599  0.38426438    -0.26500
C2012       C  0.90286135  0.04834305  0.37396306     0.05600
C2013       C  0.92426858  0.02689817  0.38609501    -0.31400
O2014       O  0.89440963  0.49998570  0.45702323    -0.23200
C2015       C  0.86529667  0.51148903  0.46647532    -0.03200
C2016       C  0.84699714  0.53724668  0.45545081    -0.17700
H2017       H  0.83476209  0.07548068  0.41819751     0.20300
H2018       H  0.93936344  0.99284842  0.42401530     0.18700
H2019       H  0.94670684  0.01073029  0.38153394     0.18600
H2020       H  0.82096567  0.54822493  0.45867494     0.14500
C2021       C  0.62703180  0.29443482  0.09922342     0.29900
C2022       C  0.62058016  0.31824358  0.11515550    -0.36400
C2023       C  0.64530106  0.31778383  0.13112970     0.15900
C2024       C  0.67429128  0.29527057  0.13151702     0.21700
C2025       C  0.68112987  0.27192101  0.11537682    -0.34500
C2026       C  0.65645753  0.27245781  0.09934968     0.15800
O2027       O  0.60535650  0.28778498  0.08393118    -0.26500
C2028       C  0.62132621  0.26153075  0.07399487     0.05600
C2029       C  0.65321590  0.25093024  0.08284919    -0.31400
O2030       O  0.69121298  0.29598363  0.14911508    -0.23200
C2031       C  0.67304970  0.31953783  0.16004385    -0.03200
C2032       C  0.64445005  0.33420660  0.14951512    -0.17700
H2033       H  0.59691948  0.33462622  0.11558771     0.20300
H2034       H  0.70302839  0.25326848  0.11580913     0.18700
H2035       H  0.67006936  0.22888894  0.07856375     0.18600
H2036       H  0.62405693  0.35186490  0.15524526     0.14500
C2037       C  0.95645204  0.12320370  0.09821459     0.29900
C2038       C  0.93131723  0.12837091  0.11379163    -0.36400
C2039       C  0.93110695  0.10295311  0.12948777     0.15900
C2040       C  0.95412951  0.07442405  0.12991059     0.21700
C2041       C  0.97866149  0.06878399  0.11406390    -0.34500
C2042       C  0.97888416  0.09419954  0.09836121     0.15800
O2043       O  0.96378780  0.14560020  0.08326643    -0.26500
C2044       C  0.99094562  0.13049174  0.07351834     0.05600
C2045       C  0.50144280  0.09849095  0.08224294    -0.31400
O2046       O  0.95270019  0.05675914  0.14732453    -0.23200
C2047       C  0.92820317  0.07398338  0.15815679    -0.03200
C2048       C  0.91358231  0.10267352  0.14766611    -0.17700
H2049       H  0.91444173  0.15163241  0.11422623     0.20300
H2050       H  0.49765245  0.04720452  0.11452688     0.18700
H2051       H  0.52391153  0.08206238  0.07806994     0.18600
H2052       H  0.89513979  0.12239037  0.15333684     0.14500
C2053       C  0.71099052  0.37980861  0.43879298     0.29900
C2054       C  0.69261606  0.39051927  0.42120267    -0.36400
C2055       C  0.69468409  0.36755128  0.40447230     0.15900
C2056       C  0.71360399  0.33618396  0.40495275     0.21700
C2057       C  0.73129545  0.32506566  0.42272491    -0.34500
C2058       C  0.72914118  0.34799768  0.43952180     0.15800
O2059       O  0.71668620  0.39947749  0.45503887    -0.26500
C2060       C  0.73816838  0.37984232  0.46660126     0.05600
C2061       C  0.74667850  0.34741648  0.45773794    -0.31400
O2062       O  0.71431839  0.32020456  0.38706468    -0.23200
C2063       C  0.69539481  0.34151117  0.37500481    -0.03200
C2064       C  0.68232789  0.37124871  0.38508477    -0.17700
H2065       H  0.67918794  0.41587942  0.42028094     0.20300
H2066       H  0.74703047  0.30102599  0.42312808     0.18700
H2067       H  0.76612373  0.32820888  0.46289787     0.18600
H2068       H  0.66694886  0.39300277  0.37884543     0.14500
C2069       C  0.88471722  0.33658743  0.13168015     0.29900
C2070       C  0.86459002  0.32885886  0.11425410    -0.36400
C2071       C  0.87511256  0.34610725  0.09624585     0.15900
C2072       C  0.90359054  0.36926174  0.09541532     0.21700
C2073       C  0.92407075  0.37646296  0.11275249    -0.34500
C2074       C  0.91330654  0.35954763  0.13076586     0.15800
O2075       O  0.87834355  0.32518244  0.15036733    -0.26500
C2076       C  0.90312427  0.34121780  0.16153360     0.05600
C2077       C  0.92554541  0.36292410  0.15012904    -0.31400
O2078       O  0.90490220  0.38710581  0.07813006    -0.23200
C2079       C  0.87716126  0.37504854  0.06763867    -0.03200
C2080       C  0.85794624  0.34921997  0.07809051    -0.17700
H2081       H  0.84119104  0.31212017  0.11492415     0.20300
H2082       H  0.94547445  0.39569430  0.11250797     0.18700
H2083       H  0.94755991  0.37900803  0.15538261     0.18600
H2084       H  0.83224995  0.33827606  0.07407406     0.14500
C2085       C  0.96217223  0.29849358  0.40306643     0.29900
C2086       C  0.48748884  0.30260980  0.41859680    -0.36400
C2087       C  0.48580891  0.27793939  0.43461755     0.15900
C2088       C  0.96095341  0.25097188  0.43531075     0.21700
C2089       C  0.93552397  0.24694092  0.41981215    -0.34500
C2090       C  0.93716803  0.27168042  0.40380386     0.15800
O2091       O  0.96067521  0.31692387  0.38597260    -0.26500
C2092       C  0.93426982  0.30187901  0.37560995     0.05600
C2093       C  0.91856855  0.27365028  0.38601731    -0.31400
O2094       O  0.96580839  0.22944667  0.45096200    -0.23200
C2095       C  0.49387243  0.24306012  0.46053391    -0.03200
C2096       C  0.50751410  0.27313271  0.45101556    -0.17700
H2097       H  0.50782592  0.32292658  0.41789902     0.20300
H2098       H  0.91653435  0.22533836  0.41989766     0.18700
H2099       H  0.89795257  0.25585789  0.38072170     0.18600
H2100       H  0.53110364  0.28805038  0.45502353     0.14500
C2101       C  0.92728933  0.81061508  0.35423575     0.80400
N2102       N  0.90366842  0.79090166  0.34339539    -0.77900
C2103       C  0.90105484  0.79512368  0.32291234     0.82800
N2104       N  0.92254304  0.81870645  0.31321868    -0.77900
C2105       C  0.94522543  0.83943808  0.32398360     0.82900
N2106       N  0.94781196  0.83512374  0.34448411    -0.79600
C2107       C  0.90692731  0.83571444  0.18363072     0.80400
N2108       N  0.93219235  0.85365436  0.19421647    -0.77900
C2109       C  0.93797938  0.84626657  0.21416971     0.82800
N2110       N  0.91860421  0.82056682  0.22355563    -0.77900
C2111       C  0.89277149  0.80302179  0.21321567     0.82900
N2112       N  0.88699131  0.81061406  0.19322984    -0.79600
C2113       C  0.68918324  0.83408808  0.35315190     0.80400
N2114       N  0.70769163  0.80810045  0.34346121    -0.77900
C2115       C  0.70154871  0.80119240  0.32341666     0.82800
N2116       N  0.67651142  0.82021002  0.31314156    -0.77900
C2117       C  0.65845767  0.84664924  0.32268274     0.82900
N2118       N  0.66495829  0.85349897  0.34260339    -0.79600
C2119       C  0.92265941  0.56764154  0.18004862     0.80400
N2120       N  0.89969620  0.58874327  0.19049660    -0.77900
C2121       C  0.89850027  0.58766826  0.21115662     0.82800
N2122       N  0.92078314  0.56558658  0.22147368    -0.77900
C2123       C  0.94290756  0.54337415  0.21117955     0.82900
N2124       N  0.94395388  0.54466599  0.19046032    -0.79600
C2125       C  0.96963018  0.86328680  0.31310793     0.42600
N2126       N  0.51031401  0.87925140  0.29210687     0.01500
C2127       C  0.61243070  0.53207672  0.29194682    -0.06400
H2128       H  0.47662454  0.55294694  0.28220260     0.07000
C2129       C  0.48443821  0.98715748  0.21539501    -0.06700
Co2130     Co  0.54863522  0.94468702  0.30539020     0.74200
N2131       N  0.50929155  0.00694641  0.28879052    -0.25900
Co2132     Co  0.54804958  0.00658862  0.26603953     0.74100
C2133       C  0.46764474  0.52017004  0.22247030     0.42700
N2134       N  0.50923465  0.90007535  0.23184460     0.01100
N2135       N  0.50888573  0.00468238  0.24344441     0.01200
N2136       N  0.61129937  0.99239148  0.31787053    -0.46700
H2137       H  0.48108497  0.91061534  0.33424490     0.07000
N2138       N  0.50938567  0.98387243  0.30399372     0.01500
N2139       N  0.58712162  0.00441967  0.24332941     0.01300
C2140       C  0.63046049  0.01677106  0.22329912     0.42900
N2141       N  0.50974380  0.87667997  0.24686735    -0.25300
C2142       C  0.61402005  0.89965164  0.31902535    -0.06300
N2143       N  0.48623584  0.85434223  0.29566473    -0.46400
N2144       N  0.61304281  0.52784979  0.24028670    -0.46700
C2145       C  0.63130750  0.86737591  0.31186801     0.42600
N2146       N  0.58691100  0.98487849  0.30392832     0.01500
N2147       N  0.58736624  0.87741293  0.24661903    -0.25400
N2148       N  0.51065704  0.90411888  0.30621984    -0.25900
N2149       N  0.58676964  0.90021902  0.23133214     0.01200
H2150       H  0.62029142  0.83204077  0.25337881     0.07000
H2151       H  0.61869573  0.96866333  0.20288657     0.07100
N2152       N  0.58686797  0.00779747  0.28867611    -0.25900
N2153       N  0.50931102  0.97960955  0.22945975    -0.25500
N2154       N  0.58828767  0.88022516  0.29178874     0.01500
C2155       C  0.46625116  0.51928157  0.31086416     0.42900
C2156       C  0.48329207  0.85334380  0.24406145    -0.06800
N2157       N  0.58659270  0.97904513  0.22952017    -0.25500
H2158       H  0.47962110  0.97232967  0.20159673     0.07100
N2159       N  0.48430556  0.99051055  0.31772294    -0.46700
H2160       H  0.47767327  0.83052859  0.25356473     0.07100
C2161       C  0.63003851  0.86537842  0.22454465     0.42800
C2162       C  0.48601424  0.89605564  0.32036028    -0.06300
Co2163     Co  0.54893510  0.87775212  0.26935439     0.73800
N2164       N  0.48379674  0.89365667  0.21838156    -0.46500
C2165       C  0.62883627  0.02134592  0.31099612     0.43000
N2166       N  0.61387408  0.85663069  0.29502095    -0.46400
Co2167     Co  0.54787847  0.93965067  0.23011347     0.73900
C2168       C  0.61295794  0.98468622  0.21612454    -0.06800
C2169       C  0.48259172  0.53031146  0.29177084    -0.06300
N2170       N  0.58781655  0.90559023  0.30561346    -0.25900
N2171       N  0.48442668  0.52968036  0.23979233    -0.46600
H2172       H  0.61773373  0.55507087  0.28252380     0.07000
C2173       C  0.61410051  0.85455758  0.24376405    -0.06700
Cl2174     Cl  0.54826797  0.94217946  0.26774859    -0.49800
C2175       C  0.96622664  0.86475318  0.22524932     0.42800
H2176       H  0.61950848  0.91533968  0.33242350     0.07000
N2177       N  0.61157147  0.89354273  0.21746035    -0.46500
C2178       C  0.67850810  0.82311632  0.18203039     0.80400
N2179       N  0.70024120  0.80053798  0.19240160    -0.77900
C2180       C  0.69982609  0.80005836  0.21309201     0.82800
N2181       N  0.67739221  0.82174464  0.22331251    -0.77900
C2182       C  0.65638125  0.84494755  0.21314281     0.82900
N2183       N  0.65669082  0.84541388  0.19248854    -0.79600
C2184       C  0.90794091  0.55274169  0.35214750     0.80400
N2185       N  0.93284829  0.53325887  0.34206267    -0.77900
C2186       C  0.93836905  0.53854032  0.32184020     0.82800
N2187       N  0.91927142  0.56353133  0.31180788    -0.77900
C2188       C  0.89404330  0.58262513  0.32162400     0.82900
N2189       N  0.88833735  0.57724233  0.34183473    -0.79600
C2190       C  0.67886506  0.56067537  0.35421416     0.80400
N2191       N  0.70114145  0.58306574  0.34410348    -0.77900
C2192       C  0.70010641  0.58521038  0.32345992     0.82800
N2193       N  0.67640590  0.56526323  0.31294473    -0.77900
C2194       C  0.65478441  0.54208928  0.32284506     0.82900
N2195       N  0.65586109  0.54000244  0.34349826    -0.79600
C2196       C  0.69453178  0.54706689  0.18418485     0.80400
N2197       N  0.71152702  0.57373705  0.19417003    -0.77900
C2198       C  0.70248364  0.58169229  0.21371619     0.82800
N2199       N  0.67615865  0.56317544  0.22314784    -0.77900
C2200       C  0.65944649  0.53626698  0.21338186     0.82900
N2201       N  0.66873356  0.52824147  0.19394316    -0.79600
C2202       C  0.72180247  0.77315701  0.31294757     0.42600
N2203       N  0.73527316  0.73127342  0.29223260     0.01500
C2204       C  0.88606685  0.62662404  0.29134551    -0.06400
H2205       H  0.91126490  0.76066045  0.28206708     0.07000
C2206       C  0.84016107  0.75749577  0.21613817    -0.06700
Co2207     Co  0.80078619  0.69230433  0.30526236     0.74200
N2208       N  0.86373038  0.73050733  0.28843806    -0.25900
Co2209     Co  0.86242654  0.69215126  0.26580713     0.74100
C2210       C  0.87249871  0.77474201  0.22334674     0.42700
N2211       N  0.75517192  0.73066786  0.23149257     0.01100
N2212       N  0.86001179  0.73137248  0.24326225     0.01200
N2213       N  0.84652745  0.62851680  0.31743944    -0.46700
H2214       H  0.77053512  0.76150530  0.33314495     0.07000
N2215       N  0.84092200  0.73056590  0.30375590     0.01500
N2216       N  0.86043853  0.65351158  0.24315499     0.01300
C2217       C  0.87544649  0.61251725  0.22227259     0.42900
N2218       N  0.73214827  0.73089090  0.24671787    -0.25300
C2219       C  0.75452687  0.62836290  0.31974921    -0.06300
N2220       N  0.71122276  0.75628232  0.29585429    -0.46400
N2221       N  0.88507745  0.62913966  0.23957000    -0.46700
C2222       C  0.72204785  0.61126837  0.31263067     0.42600
N2223       N  0.84009449  0.65355528  0.30371011     0.01500
N2224       N  0.73212940  0.65356039  0.24664606    -0.25400
N2225       N  0.76097646  0.73082818  0.30596026    -0.25900
N2226       N  0.75549225  0.65358784  0.23157008     0.01200
H2227       H  0.68612099  0.62102494  0.25311937     0.07000
H2228       H  0.82763397  0.62450094  0.20136220     0.07100
N2229       N  0.86310182  0.65330636  0.28847578    -0.25900
N2230       N  0.83443314  0.73109469  0.22948477    -0.25500
N2231       N  0.73552557  0.65341549  0.29210083     0.01500
C2232       C  0.87843698  0.77141953  0.31093243     0.42900
C2233       C  0.70883858  0.75722251  0.24371282    -0.06800
N2234       N  0.83523875  0.65410054  0.22916191    -0.25500
H2235       H  0.82409812  0.76336508  0.20288670     0.07100
N2236       N  0.84928865  0.75417653  0.31790333    -0.46700
H2237       H  0.68605713  0.76309469  0.25322149     0.07100
C2238       C  0.72025861  0.61070592  0.22459478     0.42800
C2239       C  0.75466438  0.75625890  0.31975103    -0.06300
Co2240     Co  0.73302832  0.69229787  0.26944467     0.73800
N2241       N  0.74832849  0.75532086  0.21759768    -0.46500
C2242       C  0.87498101  0.61039371  0.31048591     0.43000
N2243       N  0.71161774  0.62827508  0.29554279    -0.46400
Co2244     Co  0.79498403  0.69231849  0.23002029     0.73900
C2245       C  0.84265069  0.62931709  0.21512772    -0.06800
C2246       C  0.88813335  0.75577662  0.29150164    -0.06300
N2247       N  0.76091778  0.65396624  0.30598800    -0.25900
N2248       N  0.88344235  0.75712085  0.24014263    -0.46600
H2249       H  0.90864391  0.62047697  0.28174071     0.07000
C2250       C  0.70887488  0.62711018  0.24361352    -0.06700
Cl2251     Cl  0.79777164  0.69227102  0.26763694    -0.49800
C2252       C  0.71974375  0.77328531  0.22449874     0.42800
H2253       H  0.77015038  0.62305485  0.33324946     0.07000
N2254       N  0.74917499  0.62854061  0.21790952    -0.46500
N2255       N  0.81227026  0.93627936  0.55093754    -0.36400
N2256       N  0.77079444  0.89867346  0.51982750    -0.57000
N2257       N  0.80344763  0.94385161  0.48882345    -0.36400
N2258       N  0.84765088  0.97879999  0.51968635    -0.57000
C2259       C  0.79634679  0.91121126  0.56260888     0.27200
C2260       C  0.83747589  0.95236698  0.56242706     0.27200
C2261       C  0.78701421  0.91952660  0.47693699     0.27100
C2262       C  0.82682635  0.96169907  0.47687294     0.27100
C2263       C  0.75497980  0.88497891  0.53660851     0.35800
C2264       C  0.75168376  0.88760139  0.50358275     0.35800
C2265       C  0.86119751  0.99499878  0.53632218     0.35800
C2266       C  0.85648599  0.99899908  0.50339094     0.35800
C2267       C  0.81158961  0.91146399  0.58186558    -0.21700
C2268       C  0.83748515  0.93724532  0.58173474    -0.21700
C2269       C  0.79985226  0.92229349  0.45717459    -0.21700
C2270       C  0.82484919  0.94879360  0.45712641    -0.21700
C2271       C  0.72598645  0.86444200  0.53094081    -0.22800
C2272       C  0.72394561  0.86607037  0.51001506    -0.22800
C2273       C  0.87928567  0.02547204  0.53049502    -0.22800
C2274       C  0.87625840  0.02801895  0.50963458    -0.22800
C2275       C  0.76707580  0.88954156  0.55688548    -0.18100
C2276       C  0.85873113  0.98189349  0.55655539    -0.18100
C2277       C  0.84868430  0.99047813  0.48290689    -0.18100
C2278       C  0.75959938  0.89591623  0.48303111    -0.18100
H2279       H  0.80447888  0.89518410  0.59485179     0.14800
H2280       H  0.85385118  0.94448425  0.59462221     0.14800
H2281       H  0.79198961  0.90691256  0.44403737     0.14800
H2282       H  0.83969517  0.95760686  0.44391386     0.14800
H2283       H  0.70829172  0.84962415  0.54083031     0.13100
H2284       H  0.70436580  0.85287023  0.50062103     0.13100
H2285       H  0.89492722  0.54281755  0.54021393     0.13100
H2286       H  0.88875425  0.54797456  0.50017017     0.13100
H2287       H  0.80477017  0.94339529  0.53637573     0.26300
H2288       H  0.79760370  0.94941019  0.50381611     0.26300
N2289       N  0.56009043  0.69348900  0.05173975    -0.36400
N2290       N  0.60176984  0.73096744  0.02045790    -0.57000
N2291       N  0.56859442  0.68668258  0.98943533    -0.36400
N2292       N  0.52437687  0.65178385  0.02040797    -0.57000
C2293       C  0.57542365  0.71902928  0.06321523     0.27200
C2294       C  0.53458573  0.67759682  0.06319256     0.27200
C2295       C  0.58580202  0.71058509  0.97754617     0.27100
C2296       C  0.54516894  0.66922094  0.97744657     0.27100
C2297       C  0.61739521  0.74469013  0.03720507     0.35800
C2298       C  0.62133193  0.74168707  0.00425230     0.35800
C2299       C  0.51063026  0.63550343  0.03705809     0.35800
C2300       C  0.51471785  0.63228701  0.00404560     0.35800
C2301       C  0.55967989  0.71906989  0.08237037    -0.21700
C2302       C  0.53401887  0.69307141  0.08234664    -0.21700
C2303       C  0.57339602  0.70796911  0.95770411    -0.21700
C2304       C  0.54789205  0.68197291  0.95763315    -0.21700
C2305       C  0.64674553  0.76483059  0.03154599    -0.22800
C2306       C  0.64923169  0.76289748  0.01066910    -0.22800
C2307       C  0.99164127  0.60570547  0.03116488    -0.22800
C2308       C  0.99428395  0.60365430  0.01027966    -0.22800
C2309       C  0.60456979  0.74088108  0.05740005    -0.18100
C2310       C  0.51326069  0.64820388  0.05733810    -0.18100
C2311       C  0.52246393  0.64102498  0.98351078    -0.18100
C2312       C  0.61350470  0.73368312  0.98371315    -0.18100
H2313       H  0.56623872  0.73566097  0.09524385     0.14800
H2314       H  0.51732808  0.68608222  0.09518783     0.14800
H2315       H  0.58187790  0.72308536  0.94452458     0.14800
H2316       H  0.53322824  0.67339775  0.94435738     0.14800
H2317       H  0.66434357  0.77968488  0.04139078     0.13100
H2318       H  0.66910521  0.77584109  0.00128471     0.13100
H2319       H  0.97702721  0.58754034  0.04085193     0.13100
H2320       H  0.98219949  0.58361815  0.00075444     0.13100
H2321       H  0.56802523  0.68604256  0.03731476     0.26300
H2322       H  0.57393970  0.68118727  0.00456549     0.26300
N2323       N  0.55946749  0.67991171  0.48435732    -0.36400
N2324       N  0.59839404  0.64261600  0.51662869    -0.57000
N2325       N  0.55926166  0.68373324  0.54659817    -0.36400
N2326       N  0.51668680  0.71755956  0.51455585    -0.57000
C2327       C  0.57694350  0.65522670  0.47324380     0.27200
C2328       C  0.53462298  0.69498675  0.47214851     0.27200
C2329       C  0.57543371  0.65962691  0.55880336     0.27100
C2330       C  0.53338534  0.69939702  0.55772214     0.27100
C2331       C  0.61677614  0.63039251  0.50041981     0.35800
C2332       C  0.61643847  0.63227894  0.53343159     0.35800
C2333       C  0.50542577  0.73472526  0.49763832     0.35800
C2334       C  0.50527654  0.73671722  0.53066478     0.35800
C2335       C  0.56325491  0.65499063  0.45360270    -0.21700
C2336       C  0.53666053  0.67999207  0.45292033    -0.21700
C2337       C  0.55983570  0.66030628  0.57795987    -0.21700
C2338       C  0.53340821  0.68532779  0.57728686    -0.21700
C2339       C  0.64640305  0.61159939  0.50698134    -0.22800
C2340       C  0.64621164  0.61285909  0.52792276    -0.22800
C2341       C  0.98595590  0.76450213  0.50305027    -0.22800
C2342       C  0.98593506  0.76579671  0.52400203    -0.22800
C2343       C  0.60613304  0.63422607  0.47987414    -0.18100
C2344       C  0.51158202  0.72330255  0.47742665    -0.18100
C2345       C  0.51133086  0.72770165  0.55127304    -0.18100
C2346       C  0.60518830  0.63845040  0.55363393    -0.18100
H2347       H  0.57175652  0.63883307  0.44090828     0.14800
H2348       H  0.52091297  0.68659834  0.43964457     0.14800
H2349       H  0.56688956  0.64467699  0.59120078     0.14800
H2350       H  0.51637846  0.69245813  0.58992352     0.14800
H2351       H  0.66591084  0.59807311  0.49767185     0.13100
H2352       H  0.66547393  0.60050616  0.53793767     0.13100
H2353       H  0.97324412  0.78340236  0.49296753     0.13100
H2354       H  0.97318466  0.78582302  0.53326312     0.13100
H2355       H  0.56550975  0.68744398  0.49906638     0.26300
H2356       H  0.56692707  0.69086514  0.53200853     0.26300
N2357       N  0.81286081  0.94592283  0.98448242    -0.36400
N2358       N  0.85362878  0.90601151  0.01465632    -0.57000
N2359       N  0.81322717  0.94174005  0.04667340    -0.36400
N2360       N  0.77451485  0.98363010  0.01676208    -0.57000
C2361       C  0.83716106  0.93012646  0.97220911     0.27200
C2362       C  0.79570417  0.97094014  0.97334404     0.27200
C2363       C  0.83914590  0.92582307  0.05769077     0.27100
C2364       C  0.79761266  0.96618940  0.05881529     0.27100
C2365       C  0.86518728  0.88919064  0.99776617     0.35800
C2366       C  0.86529273  0.88700565  0.03080009     0.35800
C2367       C  0.75614543  0.99596987  0.00056057     0.35800
C2368       C  0.75627650  0.99348427  0.03357372     0.35800
C2369       C  0.83484131  0.94496737  0.95286931    -0.21700
C2370       C  0.80892576  0.97063897  0.95360530    -0.21700
C2371       C  0.83986182  0.94028924  0.07710657    -0.21700
C2372       C  0.81372329  0.96562113  0.07781654    -0.21700
C2373       C  0.88493569  0.85954378  0.00324059    -0.22800
C2374       C  0.88489781  0.85811151  0.02419984    -0.22800
C2375       C  0.72763000  0.51580944  0.00733473    -0.22800
C2376       C  0.72783773  0.51420750  0.02828424    -0.22800
C2377       C  0.86007734  0.90152564  0.97758978    -0.18100
C2378       C  0.76707638  0.99265969  0.98003340    -0.18100
C2379       C  0.76771924  0.98732465  0.05375650    -0.18100
C2380       C  0.86025201  0.89673530  0.05134666    -0.18100
H2381       H  0.84969508  0.93781102  0.93938068     0.14800
H2382       H  0.80042782  0.98676199  0.94084463     0.14800
H2383       H  0.85694514  0.93304506  0.08969693     0.14800
H2384       H  0.80708541  0.98135102  0.09103294     0.14800
H2385       H  0.89831111  0.84110353  0.99321280     0.13100
H2386       H  0.89826300  0.83845618  0.03350197     0.13100
H2387       H  0.70816157  0.52956172  0.99807938     0.13100
H2388       H  0.70869042  0.52655371  0.03835132     0.13100
H2389       H  0.80703636  0.93885364  0.99931318     0.26300
H2390       H  0.80491748  0.93443278  0.03226370     0.26300
C2391       C  0.94364488  0.81547222  0.85452879     0.80400
N2392       N  0.92397032  0.79044481  0.84470930    -0.77900
C2393       C  0.92661746  0.78680860  0.82416637     0.82800
N2394       N  0.94863707  0.80851726  0.81347379    -0.77900
C2395       C  0.96929811  0.83258627  0.82321886     0.82900
N2396       N  0.96646122  0.83630826  0.84371665    -0.79600
C2397       C  0.96359270  0.57589166  0.85237571     0.80400
N2398       N  0.98261188  0.55084218  0.84215851    -0.77900
C2399       C  0.97548226  0.54396628  0.82228867     0.82800
N2400       N  0.94940525  0.56218928  0.81264241    -0.77900
C2401       C  0.93076496  0.58766897  0.82247752     0.82900
N2402       N  0.93769527  0.59445067  0.84244213    -0.79600
C2403       C  0.69364371  0.56693581  0.85455385     0.80400
N2404       N  0.71630614  0.58750819  0.84344547    -0.77900
C2405       C  0.71684168  0.58521685  0.82280596     0.82800
N2406       N  0.69500646  0.56187814  0.81330516    -0.77900
C2407       C  0.67160387  0.54197702  0.82420513     0.82900
N2408       N  0.67110241  0.54436943  0.84484776    -0.79600
C2409       C  0.68306329  0.79380532  0.85321702     0.80400
N2410       N  0.70745131  0.77457342  0.84265642    -0.77900
C2411       C  0.71396144  0.78166064  0.82268631     0.82800
N2412       N  0.69570292  0.80808876  0.81317127    -0.77900
C2413       C  0.67053278  0.82683393  0.82348486     0.82900
N2414       N  0.66446245  0.81974113  0.84351842    -0.79600
C2415       C  0.67563412  0.58090554  0.68450606     0.80400
N2416       N  0.70179366  0.60020091  0.69356211    -0.77900
C2417       C  0.71154130  0.59308961  0.71310056     0.82800
N2418       N  0.69502301  0.56663849  0.72355212    -0.77900
C2419       C  0.66841457  0.54780438  0.71473812     0.82900
N2420       N  0.65888793  0.55490197  0.69521055    -0.79600
C2421       C  0.94751246  0.55999842  0.68016437     0.80400
N2422       N  0.92685425  0.58337247  0.69057825    -0.77900
C2423       C  0.92874363  0.58524858  0.71121425     0.82800
N2424       N  0.95112502  0.56322633  0.72149779    -0.77900
C2425       C  0.97293410  0.54075270  0.71118481     0.82900
N2426       N  0.97086952  0.53903912  0.69053119    -0.79600
C2427       C  0.90261397  0.76298213  0.81309250     0.42600
N2428       N  0.86214017  0.74780331  0.79186946     0.01500
C2429       C  0.75832249  0.59595877  0.79138271    -0.06400
H2430       H  0.89285543  0.57338722  0.78259154     0.07000
C2431       C  0.88785446  0.64145347  0.71526112    -0.06700
Co2432     Co  0.82262436  0.68270050  0.80489156     0.74200
N2433       N  0.86141120  0.62008825  0.78857429    -0.25900
Co2434     Co  0.82308076  0.62143360  0.76554199     0.74100
C2435       C  0.90425790  0.60856679  0.72243050     0.42700
N2436       N  0.86358007  0.72837162  0.73138928     0.01100
N2437       N  0.86256314  0.62348878  0.74307497     0.01200
N2438       N  0.76002888  0.63500049  0.81750289    -0.46700
H2439       H  0.89018427  0.71542661  0.83409308     0.07000
N2440       N  0.86127644  0.64316076  0.80369064     0.01500
N2441       N  0.78438668  0.62446822  0.74268123     0.01300
C2442       C  0.74094601  0.61254417  0.72268996     0.42900
N2443       N  0.86336391  0.75136311  0.74654277    -0.25300
C2444       C  0.75768365  0.72808589  0.81854010    -0.06300
N2445       N  0.88642054  0.77236682  0.79558828    -0.46400
N2446       N  0.75828526  0.60149054  0.73954780    -0.46700
C2447       C  0.74101117  0.76092797  0.81167940     0.42600
N2448       N  0.78398871  0.64289466  0.80333537     0.01500
N2449       N  0.78589658  0.75163582  0.74624923    -0.25400
N2450       N  0.86119969  0.72272795  0.80593918    -0.25900
N2451       N  0.78615108  0.72906215  0.73092408     0.01200
H2452       H  0.75408567  0.79767848  0.75303811     0.07000
H2453       H  0.75314796  0.66077470  0.70219537     0.07100
N2454       N  0.78394433  0.62009956  0.78810579    -0.25900
N2455       N  0.86256632  0.64877642  0.72910823    -0.25500
N2456       N  0.78403669  0.74802182  0.79147488     0.01500
C2457       C  0.90288650  0.60679694  0.81130598     0.42900
C2458       C  0.88981970  0.77474398  0.74364097    -0.06800
N2459       N  0.78519363  0.64998474  0.72885216    -0.25500
H2460       H  0.89319893  0.65656845  0.70156403     0.07100
N2461       N  0.88550760  0.63596765  0.81779955    -0.46700
H2462       H  0.89549677  0.79741819  0.75315180     0.07100
C2463       C  0.74386507  0.76502406  0.72414481     0.42800
C2464       C  0.88571714  0.73025149  0.82020026    -0.06300
Co2465     Co  0.82388576  0.75031216  0.76905298     0.73800
N2466       N  0.88872024  0.73523981  0.71772268    -0.46500
C2467       C  0.74259250  0.60594858  0.81083977     0.43000
N2468       N  0.75878505  0.77193190  0.79489312    -0.46400
Co2469     Co  0.82443625  0.68910924  0.72962296     0.73900
C2470       C  0.75877965  0.64458654  0.71543698    -0.06800
C2471       C  0.88715683  0.59624739  0.79195912    -0.06300
N2472       N  0.78392570  0.72220926  0.80512138    -0.25900
N2473       N  0.88697438  0.59883745  0.73959198    -0.46600
H2474       H  0.75315819  0.57292501  0.78205970     0.07000
C2475       C  0.75981390  0.77518337  0.74339002    -0.06700
Cl2476     Cl  0.82356293  0.68587190  0.76727647    -0.49800
C2477       C  0.90647698  0.76397254  0.72457515     0.42800
H2478       H  0.75187319  0.71203121  0.83181725     0.07000
N2479       N  0.76164971  0.73652188  0.71702578    -0.46500
C2480       C  0.96560306  0.79499364  0.68291785     0.80400
N2481       N  0.98609258  0.81907262  0.69291613    -0.77900
C2482       C  0.98060839  0.82551359  0.71302938     0.82800
N2483       N  0.95466448  0.80761515  0.72317040    -0.77900
C2484       C  0.93470593  0.78286374  0.71344518     0.82900
N2485       N  0.94003856  0.77680552  0.69327229    -0.79600
C2486       C  0.69403023  0.80761287  0.68219483     0.80400
N2487       N  0.67242395  0.82980714  0.69284018    -0.77900
C2488       C  0.67342889  0.83006456  0.71350447     0.82800
N2489       N  0.69642873  0.80853368  0.72346633    -0.77900
C2490       C  0.71737306  0.78568852  0.71302408     0.82900
N2491       N  0.71641988  0.78540488  0.69236707    -0.79600
C2492       C  0.64982251  0.85461724  0.81306885     0.42600
N2493       N  0.63604754  0.89681769  0.79257487     0.01500
C2494       C  0.98414620  0.50039916  0.79193800    -0.06400
H2495       H  0.95964351  0.86751795  0.78220090     0.07000
C2496       C  0.53310418  0.87119958  0.71637052    -0.06700
Co2497     Co  0.57015827  0.93530429  0.80568880     0.74200
N2498       N  0.50741873  0.89722218  0.78856575    -0.25900
Co2499     Co  0.00906711  0.93591847  0.76596412     0.74100
C2500       C  0.00086848  0.85341479  0.72345124     0.42700
N2501       N  0.61729283  0.89860534  0.73197852     0.01100
N2502       N  0.51229865  0.89699454  0.74331470     0.01200
N2503       N  0.52348341  0.49843870  0.81808617    -0.46700
H2504       H  0.60085834  0.86530919  0.83331371     0.07000
N2505       N  0.52994249  0.89708798  0.80400004     0.01500
N2506       N  0.01126168  0.97503013  0.74334968     0.01300
C2507       C  0.99619766  0.51610601  0.72245550     0.42900
N2508       N  0.64006270  0.89820540  0.74727905    -0.25300
C2509       C  0.61677732  0.49874746  0.82074077    -0.06300
N2510       N  0.66034218  0.87200749  0.79609526    -0.46400
N2511       N  0.98641432  0.49922485  0.73973411    -0.46700
C2512       C  0.64952751  0.51572268  0.81368802     0.42600
N2513       N  0.53055274  0.97403726  0.80412459     0.01500
N2514       N  0.63942736  0.97566995  0.74759652    -0.25400
N2515       N  0.61019489  0.89674203  0.80625773    -0.25900
N2516       N  0.61618736  0.97576186  0.73250060     0.01200
H2517       H  0.68512731  0.50817997  0.75437117     0.07000
H2518       H  0.54458897  0.50475619  0.70185554     0.07100
N2519       N  0.00764011  0.97431188  0.78884807    -0.25900
N2520       N  0.53815159  0.89766728  0.72967254    -0.25500
N2521       N  0.63568487  0.97433548  0.79287056     0.01500
C2522       C  0.49183268  0.85671300  0.81130417     0.42900
C2523       C  0.66353577  0.87199417  0.74434519    -0.06800
N2524       N  0.53674699  0.97479860  0.72949332    -0.25500
H2525       H  0.54959681  0.86554790  0.70325944     0.07100
N2526       N  0.52104370  0.87371374  0.81827302    -0.46700
H2527       H  0.68614063  0.86601801  0.75396340     0.07100
C2528       C  0.65092258  0.51893618  0.72591332     0.42800
C2529       C  0.61669297  0.87100254  0.81992581    -0.06300
Co2530     Co  0.63849096  0.93625393  0.77009013     0.73800
N2531       N  0.62449208  0.87420739  0.71807971    -0.46500
C2532       C  0.99471698  0.51624520  0.81121152     0.43000
N2533       N  0.65974597  0.49905432  0.79652380    -0.46400
Co2534     Co  0.57721307  0.93675833  0.73050366     0.73900
C2535       C  0.52936288  0.49970700  0.71555587    -0.06800
C2536       C  0.98271037  0.87218490  0.79167731    -0.06300
N2537       N  0.61020253  0.97357714  0.80673643    -0.25900
N2538       N  0.98933106  0.87090148  0.74012297    -0.46600
H2539       H  0.96153649  0.50640254  0.78233218     0.07000
C2540       C  0.66254160  0.50204749  0.74479543    -0.06700
Cl2541     Cl  0.57372752  0.93608274  0.76808385    -0.49800
C2542       C  0.65304340  0.85621280  0.72505921     0.42800
H2543       H  0.60120000  0.50383046  0.83428737     0.07000
N2544       N  0.62234959  0.50089313  0.71909428    -0.46500
C2545       C  0.73973708  0.54632616  0.93933876     0.29900
C2546       C  0.74529789  0.57037752  0.92327918    -0.36400
C2547       C  0.72190711  0.56756647  0.90670705     0.15900
C2548       C  0.69466189  0.54299798  0.90606730     0.21700
C2549       C  0.68847915  0.51965093  0.92237782    -0.34500
C2550       C  0.71209339  0.52217941  0.93884020     0.15800
O2551       O  0.76160820  0.54065207  0.95472040    -0.26500
C2552       C  0.74737374  0.01282719  0.96429156     0.05600
C2553       C  0.71648616  0.00030917  0.95519109    -0.31400
O2554       O  0.67949308  0.54128609  0.88798635    -0.23200
C2555       C  0.69711140  0.56511869  0.87687893    -0.03200
C2556       C  0.72352866  0.58258148  0.88782931    -0.17700
H2557       H  0.76790743  0.58819101  0.92303750     0.20300
H2558       H  0.66823930  0.99897926  0.92166398     0.18700
H2559       H  0.70172171  0.97649707  0.95892333     0.18600
H2560       H  0.74328589  0.60106744  0.88216175     0.14500
C2561       C  0.89128247  0.84869505  0.93734097     0.29900
C2562       C  0.88942794  0.82110558  0.92306523    -0.36400
C2563       C  0.91136722  0.82460592  0.90584953     0.15900
C2564       C  0.93379146  0.85319206  0.90293774     0.21700
C2565       C  0.93608998  0.88049814  0.91736745    -0.34500
C2566       C  0.91404438  0.87706613  0.93453078     0.15800
O2567       O  0.87046005  0.85264451  0.95338798    -0.26500
C2568       C  0.88012069  0.88386904  0.96098741     0.05600
C2569       C  0.90738398  0.90008124  0.95001171    -0.31400
O2570       O  0.94938557  0.85277365  0.88492424    -0.23200
C2571       C  0.93687783  0.82351804  0.87614845    -0.03200
C2572       C  0.91322838  0.80485032  0.88852304    -0.17700
H2573       H  0.87088262  0.79931602  0.92476908     0.20300
H2574       H  0.95264576  0.90363282  0.91491717     0.18700
H2575       H  0.91873309  0.92615441  0.95231791     0.18600
H2576       H  0.89798622  0.78138134  0.88480281     0.14500
C2577       C  0.63151092  0.59413380  0.59797082     0.29900
C2578       C  0.62604030  0.57157574  0.61477187    -0.36400
C2579       C  0.64489784  0.58014679  0.63255667     0.15900
C2580       C  0.66779370  0.60872171  0.63366556     0.21700
C2581       C  0.67368002  0.63086833  0.61680257    -0.34500
C2582       C  0.65475242  0.62243767  0.59907703     0.15800
O2583       O  0.61312467  0.59404091  0.58084030    -0.26500
C2584       C  0.62517091  0.62231140  0.57074154     0.05600
C2585       C  0.65115140  0.64086062  0.58134817    -0.31400
O2586       O  0.68140009  0.61291563  0.65201016    -0.23200
C2587       C  0.66700490  0.58675455  0.66287756    -0.03200
C2588       C  0.64409300  0.56545872  0.65155343    -0.17700
H2589       H  0.60712407  0.54992481  0.61431549     0.20300
H2590       H  0.69071585  0.65396823  0.61769920     0.18700
H2591       H  0.66277886  0.66628140  0.57747997     0.18600
H2592       H  0.62891350  0.54266011  0.65662674     0.14500
C2593       C  0.96031488  0.77249632  0.63109635     0.29900
C2594       C  0.94677295  0.75528871  0.61379186    -0.36400
C2595       C  0.96723730  0.75831279  0.59594386     0.15900
C2596       C  0.99896004  0.77679988  0.59528612     0.21700
C2597       C  0.01205349  0.79460833  0.61243045    -0.34500
C2598       C  0.99158440  0.79167123  0.63020375     0.15800
O2599       O  0.94698196  0.77106276  0.64970107    -0.26500
C2600       C  0.96993604  0.78973364  0.66081744     0.05600
C2601       C  0.99809846  0.80333515  0.64944132    -0.31400
O2602       O  0.51667908  0.77143667  0.57826573    -0.23200
C2603       C  0.49592155  0.74975754  0.56763045    -0.03200
C2604       C  0.96457080  0.74093487  0.57780440    -0.17700
H2605       H  0.92291823  0.73920446  0.61446007     0.20300
H2606       H  0.53749373  0.80811328  0.61223434     0.18700
H2607       H  0.02062070  0.81869574  0.65470734     0.18600
H2608       H  0.94527019  0.72091034  0.57363797     0.14500
C2609       C  0.66194543  0.74970032  0.93930896     0.29900
C2610       C  0.68016174  0.73868535  0.92175474    -0.36400
C2611       C  0.67756755  0.76112125  0.90473935     0.15900
C2612       C  0.65831180  0.79228739  0.90492379     0.21700
C2613       C  0.64057754  0.80363173  0.92261426    -0.34500
C2614       C  0.64330097  0.78124337  0.93969987     0.15800
O2615       O  0.65669257  0.73040161  0.95582072    -0.26500
C2616       C  0.63494324  0.74999659  0.96718233     0.05600
C2617       C  0.62590308  0.78205788  0.95796002    -0.31400
O2618       O  0.65765824  0.80800586  0.88690823    -0.23200
C2619       C  0.67695839  0.78672594  0.87506916    -0.03200
C2620       C  0.69008895  0.75720729  0.88539634    -0.17700
H2621       H  0.69396597  0.71351028  0.92110685     0.20300
H2622       H  0.62453962  0.82748069  0.92279120     0.18700
H2623       H  0.60604173  0.80098853  0.96289024     0.18600
H2624       H  0.70580340  0.73556113  0.87937930     0.14500
C2625       C  0.96472774  0.60068285  0.90402630     0.29900
C2626       C  0.95364244  0.61876882  0.92161382    -0.36400
C2627       C  0.97498421  0.61427627  0.93900650     0.15900
C2628       C  0.00536755  0.59366626  0.93902162     0.21700
C2629       C  0.01601342  0.57499948  0.92157550    -0.34500
C2630       C  0.99461850  0.57940221  0.90424021     0.15800
O2631       O  0.94987884  0.60257771  0.88580679    -0.26500
C2632       C  0.97043774  0.58205159  0.87422634     0.05600
C2633       C  0.99862294  0.56691906  0.88493300    -0.31400
O2634       O  0.52433231  0.59761372  0.95576965    -0.23200
C2635       C  0.00559428  0.62048201  0.96687112    -0.03200
C2636       C  0.97446453  0.63151292  0.95724105    -0.15700
H2637       H  0.93084991  0.63633853  0.92150409     0.20300
H2638       H  0.54030731  0.55955928  0.92123628     0.18700
H2639       H  0.01939114  0.54968772  0.87921909     0.18600
H2640       H  0.95663350  0.65254986  0.96188284     0.14500
C2641       C  0.91227710  0.55265870  0.63086197     0.29900
C2642       C  0.88643164  0.55756033  0.61564743    -0.36400
C2643       C  0.88800031  0.53417186  0.59906458     0.15900
C2644       C  0.91282850  0.00776187  0.59766450     0.21700
C2645       C  0.93884881  0.00300161  0.61279682    -0.34500
C2646       C  0.93780343  0.52649321  0.62921441     0.15800
O2647       O  0.91361426  0.56924856  0.64853166    -0.26500
C2648       C  0.94047659  0.55367595  0.65834176     0.05600
C2649       C  0.95664992  0.52703528  0.64695822    -0.31400
O2650       O  0.90713813  0.98674272  0.58193551    -0.23200
C2651       C  0.87849155  0.00054107  0.57295671    -0.03200
C2652       C  0.86542237  0.52977701  0.58302276    -0.17700
H2653       H  0.86559352  0.57723462  0.61707060     0.20300
H2654       H  0.95783571  0.98143292  0.61218872     0.18700
H2655       H  0.97755762  0.50902134  0.65165054     0.18600
H2656       H  0.84122728  0.54431093  0.57975484     0.14500
C2657       C  0.74058137  0.83652231  0.59819979     0.29900
C2658       C  0.74534263  0.81068202  0.61337273    -0.36400
C2659       C  0.72252081  0.81289160  0.63023488     0.15900
C2660       C  0.69672331  0.83877294  0.63206548     0.21700
C2661       C  0.69155747  0.86429671  0.61673258    -0.34500
C2662       C  0.71444901  0.86212355  0.59987114     0.15800
O2663       O  0.76140561  0.84160894  0.58226788    -0.26500
C2664       C  0.74818317  0.87055748  0.57346273     0.05600
C2665       C  0.71900131  0.88452594  0.58374506    -0.31400
O2666       O  0.68150684  0.83866215  0.65017547    -0.23200
C2667       C  0.69764453  0.81231160  0.66005576    -0.03200
C2668       C  0.72315316  0.79509236  0.64830092    -0.17700
H2669       H  0.76664280  0.79139095  0.61260397     0.20300
H2670       H  0.67238502  0.88554041  0.61836324     0.18700
H2671       H  0.70489777  0.90895719  0.58056042     0.18600
H2672       H  0.74168136  0.77465083  0.65299968     0.14500
C2673       C  0.72029369  0.50366749  0.09849572     0.29900
C2674       C  0.70000281  0.49330598  0.11548309    -0.36400
C2675       C  0.70289454  0.51487365  0.13278527     0.15900
C2676       C  0.72420496  0.54467689  0.13335766     0.21700
C2677       C  0.74396074  0.55542936  0.11622720    -0.34500
C2678       C  0.74106409  0.53387324  0.09889668     0.15800
O2679       O  0.72508944  0.48496851  0.08176585    -0.26500
C2680       C  0.74790495  0.00348772  0.07089802     0.05600
C2681       C  0.75919978  0.03402946  0.08084057    -0.31400
O2682       O  0.72440310  0.55984609  0.15147087    -0.23200
C2683       C  0.70282048  0.53956223  0.16264148    -0.03200
C2684       C  0.68861864  0.51124462  0.15176343    -0.17700
H2685       H  0.68431334  0.46921713  0.11551459     0.20300
H2686       H  0.76145219  0.57823430  0.11663691     0.18700
H2687       H  0.78055586  0.05176133  0.07643810     0.18600
H2688       H  0.67077664  0.49069182  0.15715657     0.14500
C2689       C  0.63452711  0.58142529  0.43924406     0.29900
C2690       C  0.62935594  0.55698326  0.42346705    -0.36400
C2691       C  0.65211228  0.56036399  0.40662863     0.15900
C2692       C  0.67843521  0.58586217  0.40545293     0.21700
C2693       C  0.68422608  0.60973600  0.42147928    -0.34500
C2694       C  0.66120544  0.60659832  0.43823604     0.15800
O2695       O  0.61297287  0.58636774  0.45483879    -0.26500
C2696       C  0.62622187  0.61479849  0.46406443     0.05600
C2697       C  0.65625607  0.62848099  0.45446417    -0.31400
O2698       O  0.69305024  0.58765618  0.38719509    -0.23200
C2699       C  0.67595968  0.56295436  0.37654331    -0.03200
C2700       C  0.65047290  0.54488265  0.38795187    -0.17700
H2701       H  0.60742880  0.53834370  0.42364657     0.20300
H2702       H  0.70357253  0.63093572  0.42031387     0.18700
H2703       H  0.67028062  0.65281702  0.45790374     0.18600
H2704       H  0.63123924  0.52557537  0.38271033     0.14500
C2705       C  0.88139273  0.55266113  0.40341724     0.29900
C2706       C  0.85866818  0.55935926  0.41996002    -0.36400
C2707       C  0.86657291  0.54119906  0.43810371     0.15900
C2708       C  0.89512190  0.51830486  0.43989265     0.21700
C2709       C  0.91826122  0.51224178  0.42349145    -0.34500
C2710       C  0.91005341  0.52997063  0.40530363     0.15800
O2711       O  0.87702324  0.56408081  0.38455913    -0.26500
C2712       C  0.90312266  0.54832379  0.37424777     0.05600
C2713       C  0.92458308  0.52694063  0.38640348    -0.31400
O2714       O  0.89431783  0.99972689  0.45672615    -0.23200
C2715       C  0.86539163  0.01136315  0.46631755    -0.03200
C2716       C  0.84692443  0.03700957  0.45528174    -0.17700
H2717       H  0.83520937  0.57583314  0.41842893     0.20300
H2718       H  0.93973587  0.49315999  0.42443922     0.18700
H2719       H  0.94695106  0.51067688  0.38184072     0.18600
H2720       H  0.82095554  0.04804076  0.45860617     0.14500
C2721       C  0.62861875  0.79392901  0.09888212     0.29900
C2722       C  0.62235992  0.81808233  0.11466552    -0.36400
C2723       C  0.64663487  0.81719709  0.13085314     0.15900
C2724       C  0.67505293  0.79399651  0.13156760     0.21700
C2725       C  0.68169666  0.77025123  0.11558862    -0.34500
C2726       C  0.65744923  0.77119482  0.09935324     0.15800
O2727       O  0.60716324  0.78763918  0.08343975    -0.26500
C2728       C  0.62265059  0.76080939  0.07376823     0.05600
C2729       C  0.65403598  0.74951402  0.08292804    -0.31400
O2730       O  0.69160872  0.79461081  0.14927925    -0.23200
C2731       C  0.67377204  0.81876574  0.15995518    -0.03200
C2732       C  0.64575100  0.83391340  0.14915258    -0.17700
H2733       H  0.59911922  0.83506449  0.11482800     0.20300
H2734       H  0.70310640  0.75106510  0.11628177     0.18700
H2735       H  0.67038760  0.72695968  0.07889226     0.18600
H2736       H  0.62569409  0.85217990  0.15463439     0.14500
C2737       C  0.95777107  0.62255339  0.09814723     0.29900
C2738       C  0.93219006  0.62767451  0.11349742    -0.36400
C2739       C  0.93178775  0.60242994  0.12928806     0.15900
C2740       C  0.95502702  0.57409346  0.12999047     0.21700
C2741       C  0.98006242  0.56853061  0.11439083    -0.34500
C2742       C  0.98049940  0.59379176  0.09860571     0.15800
O2743       O  0.96516766  0.64476403  0.08311706    -0.26500
C2744       C  0.99271569  0.62982000  0.07364424     0.05600
C2745       C  0.50338449  0.59808187  0.08262703    -0.31400
O2746       O  0.95328941  0.55657771  0.14743940    -0.23200
C2747       C  0.92841778  0.57371661  0.15803285    -0.03200
C2748       C  0.91381954  0.60219491  0.14733640    -0.17700
H2749       H  0.91507893  0.65077521  0.11369050     0.20300
H2750       H  0.49921890  0.54711620  0.11509585     0.18700
H2751       H  0.52607105  0.58178217  0.07867563     0.18600
H2752       H  0.89512304  0.62184524  0.15280943     0.14500
C2753       C  0.71093532  0.87950587  0.43870773     0.29900
C2754       C  0.69228963  0.89009599  0.42118636    -0.36400
C2755       C  0.69423685  0.86708689  0.40447053     0.15900
C2756       C  0.71328612  0.83579271  0.40490460     0.21700
C2757       C  0.73125552  0.82480022  0.42260432    -0.34500
C2758       C  0.72923461  0.84777555  0.43938125     0.15800
O2759       O  0.71671767  0.89920885  0.45493188    -0.26500
C2760       C  0.73840004  0.87965958  0.46642322     0.05600
C2761       C  0.74698458  0.84728814  0.45752545    -0.31400
O2762       O  0.71395943  0.81983254  0.38701630    -0.23200
C2763       C  0.69489563  0.84108330  0.37500300    -0.03200
C2764       C  0.68174511  0.87074874  0.38511143    -0.17700
H2765       H  0.67875954  0.91540543  0.42029422     0.20300
H2766       H  0.74711179  0.80083745  0.42295790     0.18700
H2767       H  0.76655255  0.82815714  0.46262601     0.18600
H2768       H  0.66632589  0.89249115  0.37889116     0.14500
C2769       C  0.88469745  0.83701887  0.13172805     0.29900
C2770       C  0.86456265  0.82924186  0.11432021    -0.36400
C2771       C  0.87499029  0.84650844  0.09630852     0.15900
C2772       C  0.90342793  0.86970538  0.09544348     0.21700
C2773       C  0.92395132  0.87695070  0.11277040    -0.34500
C2774       C  0.91323861  0.86003902  0.13080784     0.15800
O2775       O  0.87832946  0.82559797  0.15040740    -0.26500
C2776       C  0.90304179  0.84167384  0.16159080     0.05600
C2777       C  0.92543945  0.86345072  0.15019131    -0.31400
O2778       O  0.90464149  0.88752861  0.07814411    -0.23200
C2779       C  0.87687918  0.87540451  0.06768940    -0.03200
C2780       C  0.85773404  0.84958140  0.07818176    -0.17700
H2781       H  0.84119682  0.81246120  0.11501277     0.20300
H2782       H  0.94532211  0.89621833  0.11250290     0.18700
H2783       H  0.94742765  0.87956214  0.15545515     0.18600
H2784       H  0.83203748  0.83859123  0.07420581     0.14500
C2785       C  0.96251308  0.79813990  0.40312244     0.29900
C2786       C  0.48820210  0.80162276  0.41849699    -0.36400
C2787       C  0.48602992  0.77716539  0.43459940     0.15900
C2788       C  0.96033561  0.75100703  0.43554011     0.21700
C2789       C  0.93447386  0.74767129  0.42022291    -0.34500
C2790       C  0.93665508  0.77216151  0.40410861     0.15800
O2791       O  0.96145440  0.81627776  0.38591598    -0.26500
C2792       C  0.93448982  0.80187309  0.37572663     0.05600
C2793       C  0.91796373  0.77438855  0.38636791    -0.31400
O2794       O  0.96485863  0.72943588  0.45120636    -0.23200
C2795       C  0.49356277  0.74223335  0.46052453    -0.03200
C2796       C  0.50794027  0.77178324  0.45083615    -0.17700
H2797       H  0.50920842  0.82122902  0.41759506     0.20300
H2798       H  0.91481834  0.72667073  0.42048398     0.18700
H2799       H  0.89676140  0.75714018  0.38123753     0.18600
H2800       H  0.53206664  0.78599178  0.45464647     0.14500
loop_ 
_geom_bond_atom_site_label_1 
_geom_bond_atom_site_label_2 
_geom_bond_distance 
_geom_bond_site_symmetry_2 
_ccdc_geom_bond_type 
C1            N2   1.360       .  A
C1            N6   1.361       .  A
C1          C692   1.473       .  S
N2            C3   1.358       .  A
C3            N4   1.356       .  A
C3          C132   1.464       .  S
N4            C5   1.356       .  A
C5            N6   1.359       .  A
C5           C25   1.466       .  S
C7            N8   1.359       .  A
C7           N12   1.359       .  A
C7          C676   1.471       .  S
N8            C9   1.356       .  A
C9           N10   1.357       .  A
C9           C75   1.465       .  S
N10          C11   1.358       .  A
C11          N12   1.359       .  A
C11         C110   1.465       .  S
C13          N14   1.361       .  A
C13          N18   1.357       .  A
C13         C663   1.477       .  S
N14          C15   1.363       .  A
C15          N16   1.361       .  A
C15         C102   1.476       .  S
N16          C17   1.360       .  A
C17          N18   1.357       .  A
C17          C45   1.469       .  S
C19          N20   1.360       .  A
C19          N24   1.362       .  A
C19         C647   1.478       .  S
N20          C21   1.357       .  A
C21          N22   1.360       .  A
C21         C117   1.471       .  S
N22          C23   1.361       .  A
C23          N24   1.362       .  A
C23        C1433   1.474       .  S
C25        N1443   1.347       .  A
C25        C1462   1.461       .  S
N26          N43   1.323   1_455  A
N26          N48   1.320       .  A
N26         Co63   2.080       .  S
C27         N752   1.340       .  A
C27         C765   1.456       .  S
C27          H72   1.082       .  S
H28          C69   1.082       .  S
C29          N53   1.344   1_655  A
C29         C733   1.462       .  S
C29          H58   1.082       .  S
Co30         N48   2.090       .  S
Co30         N38   2.088       .  S
Co30         N70   2.084       .  S
Co30         N46   2.089       .  S
Co30        Cl74   2.473       .  S
N31         C769   1.337   1_455  A
N31          N38   1.322       .  A
N31         Co32   2.084       .  S
Co32         N35   2.093       .  S
Co32         N52   2.084       .  S
Co32         N39   2.093       .  S
Co32        Cl74   2.433       .  S
C33          N71   1.350       .  A
C33        C1423   1.474       .  S
C33         C729   1.462   1_545  S
N34          N41   1.321       .  A
N34          N64   1.325   1_455  A
N34         Co67   2.085       .  S
N35          N53   1.320       .  A
N35         N771   1.326   1_455  A
N36          C65   1.350       .  A
N36          N46   1.327       .  A
H37          C62   1.081       .  S
N38          N59   1.327   1_455  A
N39          N57   1.320       .  A
N39         N744   1.326       .  A
C40         N744   1.351       .  A
C40          C68   1.456       .  S
C40         C800   1.467       .  S
N41          C56   1.340   1_455  A
N41         Co63   2.086       .  S
C42          N70   1.340       .  A
C42          C45   1.459       .  S
C42          H76   1.082       .  S
N43        C1425   1.347       .  A
N44         C740   1.350       .  A
N44         N739   1.326       .  A
C45          N66   1.349       .  A
N46          N52   1.321       .  A
N47          C73   1.336       .  A
N47          N49   1.320       .  A
N47         Co63   2.073       .  S
N48          C62   1.344   1_455  A
N49          N77   1.326       .  A
N49         Co67   2.085       .  S
H50          C73   1.082       .  S
H51          C68   1.082       .  S
N52         C727   1.340       .  A
N53         Co67   2.092       .  S
N54          N66   1.326       .  A
N54          N70   1.321       .  A
N54         Co63   2.090       .  S
C55         N759   1.351   1_545  A
C55          C69   1.454       .  S
C55        C1486   1.465       .  S
C56        C1475   1.456       .  S
C56          H60   1.082       .  S
N57          C68   1.340       .  A
N57         Co67   2.079       .  S
N59         C755   1.350       .  A
C61          N77   1.350       .  A
C61          C73   1.453       .  S
C61          C82   1.460       .  S
C62        C1425   1.461       .  S
Co63        Cl74   2.432       .  S
N64        C1475   1.350       .  A
C65         C727   1.456       .  S
C65         C794   1.467       .  S
Co67        Cl74   2.471       .  S
C69         N731   1.337   1_655  A
N71         N735   1.326   1_655  A
C75        N1464   1.350       .  A
C75        C1456   1.456       .  S
C78          N79   1.361       .  A
C78          N83   1.360       .  A
C78         C631   1.470       .  S
N79          C80   1.359       .  A
C80          N81   1.354       .  A
C80         C152   1.463       .  S
N81          C82   1.353       .  A
C82          N83   1.356       .  A
C84          N85   1.362       .  A
C84          N89   1.360       .  A
C84         C612   1.471       .  S
N85          C86   1.357       .  A
C86          N87   1.354       .  A
C86        C1455   1.465       .  S
N87          C88   1.354       .  A
C88          N89   1.358       .  A
C88         C142   1.462       .  S
C90          N91   1.360       .  A
C90          N95   1.361       .  A
C90         C599   1.473       .  S
N91          C92   1.359       .  A
C92          N93   1.357       .  A
C92         C122   1.466       .  S
N93          C94   1.357       .  A
C94          N95   1.358       .  A
C94         C765   1.467       .  S
C96          N97   1.361       .  A
C96         N101   1.359       .  A
C96         C583   1.476       .  S
N97          C98   1.362       .  A
C98          N99   1.358       .  A
C98         C138   1.470       .  S
N99         C100   1.357       .  A
C100        N101   1.357       .  A
C100        C740   1.467       .  S
C102        N120   1.352       .  A
C102        C139   1.459       .  S
N103        N120   1.328       .  A
N103        N125   1.321       .  A
N103       Co140   2.104       .  S
C104        N129   1.338       .  A
C104        C142   1.456       .  S
C104        H149   1.082       .  S
H105        C146   1.082       .  S
C106        N130   1.341       .  A
C106        C110   1.457       .  S
C106        H135   1.081       .  S
Co107       N125   2.086       .  S
Co107       N115   2.088       .  S
Co107       N147   2.083       .  S
Co107       N123   2.081       .  S
Co107      Cl151   2.472       .  S
N108        C146   1.338       .  A
N108        N115   1.320       .  A
N108       Co109   2.079       .  S
Co109       N112   2.088       .  S
Co109       N129   2.082       .  S
Co109       N116   2.087       .  S
Co109      Cl151   2.432       .  S
C110        N148   1.349       .  A
N111        N118   1.321       .  A
N111        N141   1.326       .  A
N111       Co144   2.085       .  S
N112        N130   1.320       .  A
N112        N148   1.325       .  A
N113        C142   1.348       .  A
N113        N123   1.325       .  A
H114        C139   1.082       .  S
N115        N136   1.326       .  A
N116        N134   1.320       .  A
N116        N121   1.326       .  A
C117        N121   1.349       .  A
C117        C145   1.462       .  S
N118        C133   1.338       .  A
N118       Co140   2.081       .  S
C119        N147   1.342       .  A
C119        C122   1.459       .  S
C119        H153   1.082       .  S
C122        N143   1.349       .  A
N123        N129   1.321       .  A
N124        C150   1.341       .  A
N124        N126   1.322       .  A
N124       Co140   2.097       .  S
N125        C139   1.342       .  A
N126        N154   1.326       .  A
N126       Co144   2.083       .  S
H127        C150   1.082       .  S
H128        C145   1.082       .  S
N130       Co144   2.082       .  S
N131        N143   1.324       .  A
N131        N147   1.320       .  A
N131       Co140   2.088       .  S
C132        N136   1.351       .  A
C132        C146   1.454       .  S
C133        C152   1.456       .  S
C133        H137   1.082       .  S
N134        C145   1.344       .  A
N134       Co144   2.091       .  S
C138        N154   1.349       .  A
C138        C150   1.459       .  S
Co140      Cl151   2.434       .  S
N141        C152   1.349       .  A
Co144      Cl151   2.472       .  S
N155        C160   1.355       .  A
N155        C159   1.353       .  A
N155        H187   1.031       .  S
N156        C163   1.352       .  A
N156        C164   1.353       .  A
N157        C162   1.355       .  A
N157        C161   1.355       .  A
N157        H188   1.030       .  S
N158        C165   1.352       .  A
N158        C166   1.351       .  A
C159        C167   1.388       .  A
C159        C175   1.420       .  A
C160        C176   1.421       .  A
C160        C168   1.388       .  A
C161        C169   1.387       .  A
C161        C178   1.417       .  A
C162        C177   1.418       .  A
C162        C170   1.388       .  A
C163        C175   1.418       .  A
C163        C171   1.388       .  A
C164        C178   1.415       .  A
C164        C172   1.385       .  A
C165        C173   1.387       .  A
C165        C176   1.417       .  A
C166        C174   1.386       .  A
C166        C177   1.413       .  A
C167        H179   1.082       .  S
C167        C168   1.374       .  A
C168        H180   1.082       .  S
C169        H181   1.082       .  S
C169        C170   1.371       .  A
C170        H182   1.082       .  S
C171        H183   1.082       .  S
C171        C172   1.377       .  A
C172        H184   1.082       .  S
C173        H885   1.082       .  S
C173        C174   1.377       .  A
C174        H886   1.082       .  S
C175        C564   1.480       .  S
C176        C551   1.485       .  S
C177        C615   1.480       .  S
C178        C660   1.485       .  S
H185        C873   1.082       .  S
H186        C874   1.082       .  S
N189        C194   1.355       .  A
N189        C193   1.354       .  A
N189        H221   1.029       .  S
N190        C197   1.351       .  A
N190        C198   1.353       .  A
N191        C196   1.354       .  A
N191        C195   1.355       .  A
N191        H222   1.034   1_556  S
N192        C199   1.353       .  A
N192        C200   1.353       .  A
C193        C201   1.389       .  A
C193        C209   1.423       .  A
C194        C210   1.423       .  A
C194        C202   1.388       .  A
C195        C203   1.388       .  A
C195        C212   1.418       .  A
C196        C211   1.419       .  A
C196        C204   1.389       .  A
C197        C209   1.418       .  A
C197        C205   1.388       .  A
C198        C212   1.414   1_554  A
C198        C206   1.385       .  A
C199        C210   1.420       .  A
C199       C1607   1.387   1_455  A
C200        C211   1.416   1_554  A
C200       C1608   1.385   1_455  A
C201        H213   1.082       .  S
C201        C202   1.374       .  A
C202        H214   1.082       .  S
C203        H215   1.082       .  S
C203        C204   1.369       .  A
C204        H216   1.082       .  S
C205        H217   1.082       .  S
C205        C206   1.376       .  A
C206        H218   1.082       .  S
C207        H219   1.082       .  S
C207        C208   1.377       .  A
C207       C1599   1.387       .  A
C208        H220   1.082       .  S
C208       C1600   1.385       .  A
C209        C628   1.479       .  S
C210       C2044   1.488   1_455  S
C211       C1935   1.484       .  S
C212        C516   1.484       .  S
N223        C228   1.355       .  A
N223        C227   1.354       .  A
N223        H255   1.033       .  S
N224        C231   1.350       .  A
N224        C232   1.352       .  A
N225        C230   1.352       .  A
N225        C229   1.354       .  A
N225        H256   1.034       .  S
N226        C233   1.352       .  A
N226        C234   1.352       .  A
C227        C235   1.389       .  A
C227        C243   1.420       .  A
C228        C244   1.419       .  A
C228        C236   1.387       .  A
C229        C237   1.387       .  A
C229        C246   1.415       .  A
C230        C245   1.416       .  A
C230        C238   1.389       .  A
C231        C243   1.415       .  A
C231        C239   1.387       .  A
C232        C246   1.412       .  A
C232        C240   1.385       .  A
C233        C244   1.416       .  A
C233       C1641   1.387   1_455  A
C234        C245   1.413       .  A
C234       C1642   1.385   1_455  A
C235        H247   1.082       .  S
C235        C236   1.373       .  A
C236        H248   1.082       .  S
C237        H249   1.082       .  S
C237        C238   1.369       .  A
C238        H250   1.081       .  S
C239        H251   1.082       .  S
C239        C240   1.376       .  A
C240        H252   1.082       .  S
C241        H253   1.082       .  S
C241        C242   1.377       .  A
C241       C1633   1.387       .  A
C242        H254   1.082       .  S
C242       C1634   1.385       .  A
C243        C596   1.479       .  S
C244        C695   1.482   1_455  S
C245        C503   1.477   1_455  S
C246        C484   1.481       .  S
N257        C262   1.355       .  A
N257        C261   1.356       .  A
N257        H289   1.031       .  S
N258        C265   1.351   1_554  A
N258        C266   1.351       .  A
N259        C264   1.354       .  A
N259        C263   1.353       .  A
N259        H290   1.034       .  S
N260        C267   1.351       .  A
N260        C268   1.352       .  A
C261        C269   1.389       .  A
C261        C277   1.424       .  A
C262        C278   1.422       .  A
C262        C270   1.388       .  A
C263        C271   1.389       .  A
C263        C280   1.417       .  A
C264        C279   1.416       .  A
C264        C272   1.387       .  A
C265        C277   1.416       .  A
C265        C273   1.388   1_556  A
C266        C280   1.412       .  A
C266        C274   1.385       .  A
C267        C278   1.416   1_554  A
C267        C975   1.387       .  A
C268        C279   1.413       .  A
C268        C976   1.385       .  A
C269        H281   1.081       .  S
C269        C270   1.373       .  A
C270        H282   1.082       .  S
C271        H283   1.081       .  S
C271        C272   1.371       .  A
C272        H284   1.082       .  S
C273        H285   1.082   1_554  S
C273        C274   1.377       .  A
C274        H286   1.082       .  S
C275        H287   1.082   1_554  S
C275        C276   1.377       .  A
C275        C967   1.388   1_545  A
C276        H288   1.082       .  S
C276        C968   1.385   1_545  A
C277        C468   1.484       .  S
C278        C452   1.481       .  S
C279        C580   1.483       .  S
C280        C679   1.478       .  S
C291        N292   1.362       .  A
C291        N296   1.360       .  A
C291        C471   1.474       .  S
N292        C293   1.360       .  A
C293        N294   1.357       .  A
C293        C327   1.467       .  S
N294        C295   1.357       .  A
C295        N296   1.358       .  A
C295       C1822   1.466       .  S
C297        N298   1.363       .  A
C297        N302   1.363       .  A
C297        C532   1.477       .  S
N298        C299   1.358       .  A
C299        N300   1.353       .  A
C299        C432   1.467       .  S
N300        C301   1.354       .  A
C301        N302   1.361       .  A
C301        C357   1.466       .  S
C303        N304   1.361       .  A
C303        N308   1.360       .  A
C303        C455   1.472       .  S
N304        C305   1.359       .  A
C305        N306   1.356       .  A
C305        C367   1.468       .  S
N306        C307   1.356       .  A
C307        N308   1.358       .  A
C307        C412   1.463       .  S
C309        N310   1.360       .  A
C309        N314   1.359       .  A
C309        C519   1.477       .  S
N310        C311   1.359       .  A
C311        N312   1.360       .  A
C311        C347   1.473       .  S
N312        C313   1.361       .  A
C313        N314   1.360       .  A
C313        C392   1.471       .  S
C315        N316   1.360       .  A
C315        N320   1.358       .  A
C315        C487   1.472       .  S
N316        C317   1.360       .  A
C317        N318   1.357       .  A
C317        C342   1.467       .  S
N318        C319   1.356       .  A
C319        N320   1.357       .  A
C319        C428   1.464       .  S
C321        N322   1.360       .  A
C321        N326   1.362       .  A
C321        C548   1.478       .  S
N322        C323   1.359       .  A
C323        N324   1.359       .  A
C323        C335   1.470       .  S
N324        C325   1.360       .  A
C325        N326   1.360       .  A
C325        C407   1.473       .  S
C327        N345   1.347       .  A
C327        C364   1.462       .  S
N328        N345   1.323       .  A
N328        N350   1.320       .  A
N328       Co365   2.080       .  S
C329        N354   1.341       .  A
C329        C367   1.458       .  S
C329        H374   1.082       .  S
H330        C371   1.082       .  S
C331        N355   1.343       .  A
C331        C335   1.460       .  S
C331        H360   1.082       .  S
Co332       N350   2.091       .  S
Co332       N340   2.082       .  S
Co332       N372   2.081       .  S
Co332       N348   2.088       .  S
Co332      Cl376   2.473       .  S
N333        C371   1.338       .  A
N333        N340   1.322       .  A
N333       Co334   2.087       .  S
Co334       N337   2.093       .  S
Co334       N354   2.089       .  S
Co334       N341   2.092       .  S
Co334      Cl376   2.432       .  S
C335        N373   1.350       .  A
N336        N343   1.321       .  A
N336        N366   1.326       .  A
N336       Co369   2.087       .  S
N337        N355   1.321       .  A
N337        N373   1.326       .  A
N338        C367   1.350       .  A
N338        N348   1.326       .  A
H339        C364   1.081       .  S
N340        N361   1.326       .  A
N341        N359   1.321       .  A
N341        N346   1.324       .  A
C342        N346   1.350       .  A
C342        C370   1.458       .  S
N343        C358   1.341       .  A
N343       Co365   2.092       .  S
C344        N372   1.340       .  A
C344        C347   1.458       .  S
C344        H378   1.082       .  S
C347        N368   1.352       .  A
N348        N354   1.321       .  A
N349        C375   1.334       .  A
N349        N351   1.320       .  A
N349       Co365   2.071       .  S
N350        C364   1.344       .  A
N351        N379   1.327       .  A
N351       Co369   2.085       .  S
H352        C375   1.082       .  S
H353        C370   1.082       .  S
N355       Co369   2.088       .  S
N356        N368   1.328       .  A
N356        N372   1.320       .  A
N356       Co365   2.100       .  S
C357        N361   1.349       .  A
C357        C371   1.457       .  S
C358        C377   1.457       .  S
C358        H362   1.082       .  S
N359        C370   1.342       .  A
N359       Co369   2.082       .  S
C363        N379   1.350       .  A
C363        C375   1.451       .  S
C363        C390   1.460       .  S
Co365      Cl376   2.431       .  S
N366        C377   1.350       .  A
Co369      Cl376   2.476       .  S
C377        C384   1.469       .  S
C380        N381   1.360       .  A
C380        N385   1.359       .  A
C380        C500   1.473       .  S
N381        C382   1.359       .  A
C382        N383   1.358       .  A
C382        C400   1.469       .  S
N383        C384   1.358       .  A
C384        N385   1.359       .  A
C386        N387   1.360       .  A
C386        N391   1.361       .  A
C386        C567   1.470       .  S
N387        C388   1.357       .  A
C388        N389   1.353       .  A
C388        C442   1.463       .  S
N389        C390   1.354       .  A
C390        N391   1.357       .  A
C392        N410   1.350       .  A
C392        C429   1.460       .  S
N393        N410   1.326       .  A
N393        N415   1.322       .  A
N393       Co430   2.093       .  S
C394       N1119   1.339   1_545  A
C394        C432   1.458       .  S
C394        H439   1.082       .  S
H395        C436   1.082       .  S
C396        N420   1.342       .  A
C396       C1800   1.458       .  S
C396        H425   1.082       .  S
Co397       N415   2.091       .  S
Co397       N405   2.092       .  S
Co397       N437   2.088       .  S
Co397       N413   2.085       .  S
Co397      Cl441   2.473       .  S
N398       C1836   1.339   1_455  A
N398        N405   1.321       .  A
N398      Co1799   2.079       .  S
Co399       N419   2.087       .  S
Co399       N406   2.090       .  S
Co399      N1798   2.079       .  S
Co399      N1802   2.093       .  S
Co399     Cl1841   2.433       .  S
C400        N438   1.350       .  A
C400       C1796   1.458       .  S
N401        N408   1.320       .  A
N401        N431   1.326       .  A
N401       Co434   2.086       .  S
N402        N420   1.320       .  A
N402       N1838   1.325   1_455  A
N402      Co1799   2.093       .  S
N403       C1832   1.349   1_465  A
N403       N1113   1.327       .  A
H404        C429   1.082       .  S
N405        N426   1.327       .  A
N406       N1824   1.320       .  A
N406       N1111   1.326       .  A
C407        N411   1.350   1_545  A
C407       C1835   1.462   1_545  S
N408        C423   1.339       .  A
N408       Co430   2.081       .  S
C409       N1137   1.343       .  A
C409        C412   1.459   1_565  S
C409        H443   1.082   1_565  S
N411       N1106   1.326       .  A
C412        N433   1.347   1_545  A
N413       N1103   1.326       .  A
N413       N1819   1.322       .  A
N414       C1140   1.342       .  A
N414        N416   1.321       .  A
N414       Co430   2.092       .  S
N415        C429   1.342       .  A
N416       N1144   1.324       .  A
N416       Co434   2.080       .  S
H417        C440   1.082       .  S
H418        C435   1.082   1_545  S
N419       C1094   1.338       .  A
N419       N1813   1.322       .  A
N420       Co434   2.080       .  S
N421        N437   1.321       .  A
N421       N1133   1.323       .  A
N421       Co430   2.083       .  S
C422        N426   1.352   1_655  A
C422       C1695   1.466       .  S
C422       C1836   1.454       .  S
C423        C442   1.456       .  S
C423        H427   1.082       .  S
N424       C1135   1.345       .  A
N424       N1806   1.320       .  A
N424       Co434   2.093       .  S
C428        N444   1.348       .  A
C428        C440   1.459       .  S
Co430      Cl441   2.436       .  S
N431        C442   1.349       .  A
C432       N1803   1.349   1_545  A
N433       N1121   1.322       .  A
Co434      Cl441   2.471       .  S
C435       N1124   1.344       .  A
C435       C1807   1.462   1_465  S
C436       N1798   1.339       .  A
C436       C1822   1.454       .  S
N437       C1109   1.344       .  A
N438       N1802   1.325       .  A
C440       N1114   1.342   1_545  A
Cl441     Co1799   2.433       .  S
N444       N1116   1.324   1_545  A
C445        C450   1.381       .  A
C445        C446   1.404       .  A
C445        O451   1.319       .  A
C446        H457   1.082       .  S
C446        C447   1.403       .  A
C447        C456   1.362       .  A
C447        C448   1.381       .  A
C448        C449   1.403       .  A
C448        O454   1.319       .  A
C449       H1158   1.082   1_545  S
C449        C450   1.402       .  A
C450       C1153   1.361       .  A
O451       C1152   1.331       .  A
C452        C453   1.389       .  A
C452       O1151   1.331       .  A
C453        H459   1.082       .  S
C453       C1150   1.362       .  A
O454        C455   1.331       .  A
C455        C456   1.392       .  A
C456        H460   1.083       .  S
H458       C1149   1.082       .  S
C461        C466   1.381       .  A
C461        C462   1.404       .  A
C461        O467   1.320       .  A
C462        H473   1.082       .  S
C462        C463   1.404       .  A
C463        C472   1.364       .  A
C463        C464   1.380       .  A
C464        C465   1.404       .  A
C464        O470   1.319       .  A
C465        H474   1.082       .  S
C465        C466   1.403       .  A
C466        C469   1.361       .  A
O467        C468   1.331       .  A
C468        C469   1.391       .  A
C469        H475   1.082       .  S
O470        C471   1.332       .  A
C471        C472   1.392       .  A
C472        H476   1.082       .  S
C477        C482   1.381       .  A
C477        C478   1.405       .  A
C477        O483   1.320       .  A
C478        H489   1.082       .  S
C478        C479   1.405       .  A
C479        C488   1.363       .  A
C479        C480   1.380       .  A
C480        C481   1.402       .  A
C480        O486   1.319       .  A
C481        H490   1.082       .  S
C481        C482   1.402       .  A
C482        C485   1.360       .  A
O483        C484   1.332       .  A
C484        C485   1.389       .  A
C485        H491   1.082       .  S
O486        C487   1.330       .  A
C487        C488   1.393       .  A
C488        H492   1.083       .  S
C493        C498   1.380       .  A
C493        C494   1.405       .  A
C493        O499   1.320       .  A
C494        H505   1.082       .  S
C494        C495   1.404       .  A
C495        C504   1.365       .  A
C495        C496   1.380       .  A
C496        C497   1.402       .  A
C496       O1902   1.316       .  A
C497       H1906   1.082       .  S
C497        C498   1.400       .  A
C498        C501   1.361       .  A
O499        C500   1.332       .  A
C500        C501   1.391       .  A
C501        H507   1.083       .  S
O502        C503   1.330   1_455  A
O502       C1896   1.316   1_455  A
C503       C1904   1.393       .  A
C504        H508   1.082       .  S
C504       C1903   1.393       .  A
H506       C1897   1.082       .  S
C509        C514   1.380       .  A
C509        C510   1.403       .  A
C509        O515   1.318       .  A
C510        H521   1.082       .  S
C510        C511   1.402       .  A
C511        C520   1.362       .  A
C511        C512   1.380       .  A
C512        C513   1.407       .  A
C512        O518   1.322       .  A
C513        H522   1.082       .  S
C513        C514   1.406       .  A
C514        C517   1.366       .  A
O515        C516   1.331       .  A
C516        C517   1.393       .  A
C517        H523   1.082       .  S
O518        C519   1.333       .  A
C519        C520   1.391       .  A
C520        H524   1.082       .  S
C525        C530   1.380       .  A
C525        C526   1.406       .  A
C525        O531   1.322       .  A
C526        H537   1.082       .  S
C526        C527   1.406       .  A
C527        C536   1.364       .  A
C527        C528   1.380       .  A
C528        C529   1.404       .  A
C528       O1934   1.319       .  A
C529       H1938   1.082       .  S
C529        C530   1.403       .  A
C530        C533   1.361       .  A
O531        C532   1.333       .  A
C532        C533   1.392       .  A
C533        H539   1.082       .  S
O534       C1928   1.319       .  A
O534       C1935   1.331       .  A
C535       C1611   1.484       .  S
C535        C536   1.392       .  A
C535       O1934   1.331       .  A
C536        H540   1.082       .  S
H538       C1929   1.082       .  S
C541        C546   1.380       .  A
C541        C542   1.406       .  A
C541        O547   1.321       .  A
C542        H553   1.082       .  S
C542        C543   1.405       .  A
C543        C552   1.364       .  A
C543       C1244   1.380       .  A
C544        C545   1.405       .  A
C544       C1243   1.380       .  A
C544        O550   1.321       .  A
C545        H554   1.082       .  S
C545       C1246   1.405       .  A
C546        C549   1.364       .  A
C546       C1245   1.405       .  A
O547        C548   1.333       .  A
C548        C549   1.393       .  A
C549        H555   1.082       .  S
O550        C551   1.332       .  A
C551       C1252   1.391       .  A
C552        H556   1.082       .  S
C552       C1251   1.391       .  A
C557        C562   1.381       .  A
C557        C558   1.402       .  A
C557        O563   1.318       .  A
C558        H569   1.082       .  S
C558        C559   1.401       .  A
C559        C568   1.361       .  A
C559        C560   1.380       .  A
C560        C561   1.405       .  A
C560        O566   1.319       .  A
C561        H570   1.082       .  S
C561        C562   1.404       .  A
C562        C565   1.363       .  A
O563        C564   1.329       .  A
C564        C565   1.391       .  A
C565        H571   1.082       .  S
O566        C567   1.331       .  A
C567        C568   1.391       .  A
C568        H572   1.083       .  S
C573        C578   1.381       .  A
C573        C574   1.404   1_545  A
C573        O579   1.319   1_545  A
C574        H585   1.082       .  S
C574        C575   1.403   1_565  A
C575        C584   1.362       .  A
C575        C576   1.380       .  A
C576        C577   1.405       .  A
C576        O582   1.321       .  A
C577        H586   1.082       .  S
C577        C578   1.405       .  A
C578       C1281   1.363       .  A
O579       C1280   1.331   1_565  A
C580        C581   1.392       .  A
C580       O1279   1.331       .  A
C581        H587   1.082       .  S
C581       C1278   1.364       .  A
O582        C583   1.332       .  A
C583        C584   1.393       .  A
C584        H588   1.083   1_545  S
C589        C594   1.381       .  A
C589        C590   1.403       .  A
C589        O595   1.319       .  A
C590        H601   1.082       .  S
C590        C591   1.403       .  A
C591        C600   1.362       .  A
C591        C592   1.381       .  A
C592        C593   1.403       .  A
C592        O598   1.319       .  A
C593        H602   1.082       .  S
C593        C594   1.402       .  A
C594        C597   1.362       .  A
O595        C596   1.330       .  A
C596        C597   1.389       .  A
C597        H603   1.082       .  S
O598        C599   1.331       .  A
C599        C600   1.392       .  A
C600        H604   1.083       .  S
C605        C610   1.380       .  A
C605        C606   1.405       .  A
C605        O611   1.321       .  A
C606        H617   1.082       .  S
C606        C607   1.405       .  A
C607        C608   1.381       .  A
C607       C1316   1.363       .  A
C608        C609   1.402       .  A
C608       O1314   1.318   1_545  A
C609        H618   1.082   1_545  S
C609        C610   1.401       .  A
C610        C613   1.359       .  A
O611        C612   1.332       .  A
C612        C613   1.390       .  A
C613        H619   1.082       .  S
O614        C615   1.330       .  A
O614       C1308   1.318       .  A
C615        C616   1.391       .  A
C616        H620   1.082       .  S
C616       C1307   1.363       .  A
C621        C626   1.381       .  A
C621        C622   1.402       .  A
C621        O627   1.318       .  A
C622        H633   1.082       .  S
C622        C623   1.401       .  A
C623        C632   1.359       .  A
C623        C624   1.381       .  A
C624        C625   1.403       .  A
C624        O630   1.320       .  A
C625        H634   1.082       .  S
C625        C626   1.403       .  A
C626        C629   1.361       .  A
O627        C628   1.330       .  A
C628        C629   1.390       .  A
C629        H635   1.082       .  S
O630        C631   1.331       .  A
C631        C632   1.391       .  A
C632        H636   1.083       .  S
C637        C642   1.380       .  A
C637        C638   1.405       .  A
C637        O643   1.321       .  A
C638        H649   1.082       .  S
C638        C639   1.405       .  A
C639        C648   1.362       .  A
C639        C640   1.380       .  A
C640        C641   1.406       .  A
C640        O646   1.322       .  A
C641       H2050   1.082       .  S
C641        C642   1.405       .  A
C642       C2045   1.364       .  A
O643        C644   1.332       .  A
C644       C1610   1.488       .  S
C644       C2045   1.391       .  A
C645        H651   1.082       .  S
C645       C2042   1.364   1_455  A
C645       C2044   1.391   1_455  A
O646        C647   1.332       .  A
C647        C648   1.393       .  A
C648        H652   1.083       .  S
H650       C2041   1.082       .  S
C653        C658   1.380       .  A
C653        C654   1.404       .  A
C653        O659   1.319       .  A
C654        H665   1.082       .  S
C654        C655   1.403       .  A
C655        C664   1.362       .  A
C655        C656   1.380       .  A
C656        C657   1.406       .  A
C656        O662   1.322       .  A
C657        H666   1.082       .  S
C657        C658   1.406       .  A
C658        C661   1.366       .  A
O659        C660   1.331       .  A
C660        C661   1.393       .  A
C661        H667   1.082       .  S
O662        C663   1.332       .  A
C663        C664   1.393       .  A
C664        H668   1.083       .  S
C669        C674   1.380       .  A
C669        C670   1.403       .  A
C669        O675   1.320       .  A
C670        H681   1.082       .  S
C670        C671   1.404       .  A
C671        C680   1.361       .  A
C671        C672   1.381       .  A
C672        C673   1.402       .  A
C672        O678   1.318       .  A
C673        H682   1.082       .  S
C673        C674   1.401       .  A
C674        C677   1.359       .  A
O675        C676   1.332       .  A
C676        C677   1.390       .  A
C677        H683   1.082       .  S
O678        C679   1.330       .  A
C679        C680   1.391       .  A
C680        H684   1.082       .  S
C685        C690   1.380       .  A
C685       C2086   1.404       .  A
C685        O691   1.319       .  A
C686        H697   1.082   1_655  S
C686        C687   1.403       .  A
C686       C2085   1.404       .  A
C687        C696   1.363   1_655  A
C687       C2088   1.381       .  A
C688        C689   1.405       .  A
C688       C2087   1.381       .  A
C688        O694   1.320       .  A
C689        H698   1.082       .  S
C689        C690   1.404       .  A
C690        C693   1.363       .  A
O691        C692   1.331       .  A
C692        C693   1.393       .  A
C693        H699   1.083       .  S
O694       C2095   1.331       .  A
C695        C696   1.390   1_655  A
C695       O2094   1.331       .  A
C696        H700   1.082       .  S
C701        N702   1.360       .  A
C701        N706   1.361       .  A
C701       C1392   1.473       .  S
N702        C703   1.357       .  A
C703        N704   1.357       .  A
C703        C832   1.464       .  S
N704        C705   1.357       .  A
C705        N706   1.359       .  A
C705        C725   1.467       .  S
C707        N708   1.358       .  A
C707        N712   1.359       .  A
C707       C1376   1.471       .  S
N708        C709   1.356       .  A
C709        N710   1.357       .  A
C709        C775   1.464       .  S
N710        C711   1.358       .  A
C711        N712   1.360       .  A
C711        C810   1.467       .  S
C713        N714   1.360       .  A
C713        N718   1.357       .  A
C713       C1363   1.476       .  S
N714        C715   1.362       .  A
C715        N716   1.361       .  A
C715        C802   1.474       .  S
N716        C717   1.360       .  A
C717        N718   1.356       .  A
C717        C745   1.467       .  S
C719        N720   1.360       .  A
C719        N724   1.362       .  A
C719       C1347   1.478       .  S
N720        C721   1.358       .  A
C721        N722   1.360       .  A
C721        C817   1.471       .  S
N722        C723   1.360       .  A
C723        N724   1.362       .  A
C723       C2133   1.475       .  S
C725       N2143   1.347       .  A
C725       C2162   1.461       .  S
N726        N743   1.323   1_455  A
N726        N748   1.320       .  A
N726       Co763   2.082       .  S
C727        H772   1.082       .  S
H728        C769   1.082       .  S
C729        N753   1.344   1_655  A
C729        H758   1.082       .  S
Co730       N748   2.091       .  S
Co730       N738   2.089       .  S
Co730       N770   2.083       .  S
Co730       N746   2.090       .  S
Co730      Cl774   2.474       .  S
N731        N738   1.322   1_545  A
N731       Co732   2.084       .  S
Co732       N735   2.091       .  S
Co732       N752   2.083       .  S
Co732       N739   2.092       .  S
Co732      Cl774   2.430   1_545  S
C733        N771   1.350       .  A
C733       C2123   1.475       .  S
N734        N741   1.321       .  A
N734        N764   1.325   1_455  A
N734       Co767   2.084       .  S
N735        N753   1.320   1_545  A
N736        C765   1.351   1_565  A
N736        N746   1.327       .  A
H737        C762   1.081       .  S
N738        N759   1.327   1_455  A
N739        N757   1.320   1_545  A
C740        C768   1.456   1_545  S
N741        C756   1.340   1_455  A
N741       Co763   2.086       .  S
C742        N770   1.339       .  A
C742        C745   1.458       .  S
C742        H776   1.082       .  S
N743       C2125   1.347       .  A
C745        N766   1.349       .  A
N746        N752   1.320   1_565  A
N747        C773   1.336       .  A
N747        N749   1.320       .  A
N747       Co763   2.075       .  S
N748        C762   1.344   1_455  A
N749        N777   1.327       .  A
N749       Co767   2.085       .  S
H750        C773   1.082       .  S
H751        C768   1.082       .  S
N753       Co767   2.090       .  S
N754        N766   1.326       .  A
N754        N770   1.321       .  A
N754       Co763   2.090       .  S
C755        C769   1.455       .  S
C755       C2186   1.464       .  S
C756       C2175   1.456       .  S
C756        H760   1.082       .  S
N757        C768   1.340       .  A
N757       Co767   2.078       .  S
C761        N777   1.350       .  A
C761        C773   1.453       .  S
C761        C782   1.461       .  S
C762       C2125   1.461       .  S
Co763      Cl774   2.431       .  S
N764       C2175   1.350       .  A
Co767      Cl774   2.473       .  S
C775       N2164   1.350       .  A
C775       C2156   1.456       .  S
C778        N779   1.361       .  A
C778        N783   1.361       .  A
C778       C1331   1.470       .  S
N779        C780   1.359       .  A
C780        N781   1.353       .  A
C780        C852   1.461       .  S
N781        C782   1.353       .  A
C782        N783   1.356       .  A
C784        N785   1.362       .  A
C784        N789   1.360       .  A
C784       C1312   1.471       .  S
N785        C786   1.358       .  A
C786        N787   1.354       .  A
C786       C2155   1.464       .  S
N787        C788   1.354       .  A
C788        N789   1.359       .  A
C788        C842   1.463       .  S
C790        N791   1.359       .  A
C790        N795   1.361       .  A
C790       C1299   1.473       .  S
N791        C792   1.358       .  A
C792        N793   1.356       .  A
C792        C822   1.464       .  S
N793        C794   1.356       .  A
C794        N795   1.359       .  A
C796        N797   1.361       .  A
C796        N801   1.359       .  A
C796       C1283   1.476       .  S
N797        C798   1.362       .  A
C798        N799   1.358       .  A
C798        C838   1.469       .  S
N799        C800   1.356       .  A
C800        N801   1.358       .  A
C802        N820   1.352       .  A
C802        C839   1.459       .  S
N803        N820   1.327       .  A
N803        N825   1.321       .  A
N803       Co840   2.102       .  S
C804        N829   1.338       .  A
C804        C842   1.456       .  S
C804        H849   1.082       .  S
H805        C846   1.082       .  S
C806        N830   1.341       .  A
C806        C810   1.457       .  S
C806        H835   1.082       .  S
Co807       N825   2.085       .  S
Co807       N815   2.088       .  S
Co807       N847   2.081       .  S
Co807       N823   2.079       .  S
Co807      Cl851   2.473       .  S
N808        C846   1.338       .  A
N808        N815   1.320       .  A
N808       Co809   2.077       .  S
Co809       N812   2.091       .  S
Co809       N829   2.085       .  S
Co809       N816   2.087       .  S
Co809      Cl851   2.430       .  S
C810        N848   1.350       .  A
N811        N818   1.321       .  A
N811        N841   1.326       .  A
N811       Co844   2.082       .  S
N812        N830   1.320       .  A
N812        N848   1.325       .  A
N813        C842   1.348       .  A
N813        N823   1.325       .  A
H814        C839   1.082       .  S
N815        N836   1.327       .  A
N816        N834   1.320       .  A
N816        N821   1.325       .  A
C817        N821   1.349       .  A
C817        C845   1.462       .  S
N818        C833   1.338       .  A
N818       Co840   2.081       .  S
C819        N847   1.341       .  A
C819        C822   1.457       .  S
C819        H853   1.082       .  S
C822        N843   1.349       .  A
N823        N829   1.321       .  A
N824        C850   1.341       .  A
N824        N826   1.322       .  A
N824       Co840   2.095       .  S
N825        C839   1.342       .  A
N826        N854   1.326       .  A
N826       Co844   2.083       .  S
H827        C850   1.082       .  S
H828        C845   1.082       .  S
N830       Co844   2.081       .  S
N831        N843   1.324       .  A
N831        N847   1.320       .  A
N831       Co840   2.087       .  S
C832        N836   1.351       .  A
C832        C846   1.453       .  S
C833        C852   1.456       .  S
C833        H837   1.082       .  S
N834        C845   1.343       .  A
N834       Co844   2.089       .  S
C838        N854   1.349       .  A
C838        C850   1.459       .  S
Co840      Cl851   2.434       .  S
N841        C852   1.348       .  A
Co844      Cl851   2.472       .  S
N855        C860   1.355       .  A
N855        C859   1.353       .  A
N855        H887   1.032       .  S
N856        C863   1.352       .  A
N856        C864   1.353       .  A
N857        C862   1.354       .  A
N857        C861   1.355       .  A
N857        H888   1.031       .  S
N858        C865   1.353       .  A
N858        C866   1.352       .  A
C859        C867   1.389       .  A
C859        C875   1.421       .  A
C860        C876   1.422       .  A
C860        C868   1.388       .  A
C861        C869   1.387       .  A
C861        C878   1.417       .  A
C862        C877   1.418       .  A
C862        C870   1.388       .  A
C863        C875   1.418       .  A
C863        C871   1.388       .  A
C864        C878   1.416       .  A
C864        C872   1.385       .  A
C865        C873   1.387   1_565  A
C865        C876   1.419       .  A
C866        C874   1.385   1_565  A
C866        C877   1.415       .  A
C867        H879   1.082       .  S
C867        C868   1.375       .  A
C868        H880   1.082       .  S
C869        H881   1.082       .  S
C869        C870   1.371       .  A
C870        H882   1.082       .  S
C871        H883   1.082       .  S
C871        C872   1.377       .  A
C872        H884   1.082       .  S
C873        C874   1.378       .  A
C875       C1264   1.481       .  S
C876       C1251   1.487   1_565  S
C877       C1315   1.481   1_565  S
C878       C1360   1.485       .  S
N889        C894   1.355       .  A
N889        C893   1.353       .  A
N889        H921   1.032       .  S
N890        C897   1.351       .  A
N890        C898   1.353       .  A
N891        C896   1.353       .  A
N891        C895   1.354       .  A
N891        H922   1.034   1_556  S
N892        C899   1.354       .  A
N892        C900   1.354       .  A
C893        C901   1.389       .  A
C893        C909   1.421       .  A
C894        C910   1.421       .  A
C894        C902   1.388       .  A
C895        C903   1.388       .  A
C895        C912   1.417       .  A
C896        C911   1.418       .  A
C896        C904   1.389       .  A
C897        C909   1.417       .  A
C897        C905   1.388       .  A
C898        C912   1.414   1_554  A
C898        C906   1.385       .  A
C899       C2307   1.387   1_455  A
C899        C910   1.420       .  A
C900       C2308   1.385   1_455  A
C900        C911   1.417   1_554  A
C901        H913   1.082       .  S
C901        C902   1.374       .  A
C902        H914   1.082       .  S
C903        H915   1.082       .  S
C903        C904   1.370       .  A
C904        H916   1.082       .  S
C905        H917   1.082       .  S
C905        C906   1.376       .  A
C906        H918   1.082       .  S
C907        H919   1.082       .  S
C907       C2299   1.387       .  A
C907        C908   1.377       .  A
C908        H920   1.082       .  S
C908       C2300   1.385       .  A
C909       C1328   1.479       .  S
C910       C2744   1.488   1_455  S
C911       C2635   1.484       .  S
C912       C1216   1.482       .  S
N923        C928   1.354       .  A
N923        C927   1.354       .  A
N923        H955   1.033       .  S
N924        C931   1.350       .  A
N924        C932   1.352       .  A
N925        C930   1.352       .  A
N925        C929   1.354       .  A
N925        H956   1.035       .  S
N926        C933   1.352       .  A
N926        C934   1.352       .  A
C927        C935   1.389       .  A
C927        C943   1.420       .  A
C928        C944   1.418       .  A
C928        C936   1.387       .  A
C929        C937   1.387       .  A
C929        C946   1.415       .  A
C930        C945   1.415       .  A
C930        C938   1.388       .  A
C931        C943   1.414       .  A
C931        C939   1.387       .  A
C932        C946   1.412       .  A
C932        C940   1.385       .  A
C933       C2341   1.387   1_455  A
C933        C944   1.415       .  A
C934       C2342   1.385   1_455  A
C934        C945   1.413       .  A
C935        H947   1.082       .  S
C935        C936   1.374       .  A
C936        H948   1.082       .  S
C937        H949   1.082       .  S
C937        C938   1.370       .  A
C938        H950   1.082       .  S
C939        H951   1.082       .  S
C939        C940   1.376       .  A
C940        H952   1.082       .  S
C941        H953   1.082       .  S
C941       C2333   1.387       .  A
C941        C942   1.377       .  A
C942        H954   1.082       .  S
C942       C2334   1.385       .  A
C943       C1296   1.479       .  S
C944       C1395   1.482   1_455  S
C945       C1203   1.478   1_455  S
C946       C1184   1.481       .  S
N957        C962   1.355       .  A
N957        C961   1.356       .  A
N957        H989   1.032       .  S
N958        C965   1.351   1_554  A
N958        C966   1.351       .  A
N959        C964   1.354       .  A
N959        C963   1.352       .  A
N959        H990   1.035       .  S
N960        C967   1.350       .  A
N960        C968   1.351       .  A
C961        C969   1.389       .  A
C961        C977   1.423       .  A
C962        C978   1.421       .  A
C962        C970   1.387       .  A
C963        C971   1.389       .  A
C963        C980   1.417       .  A
C964        C979   1.416       .  A
C964        C972   1.387       .  A
C965        C977   1.416       .  A
C965        C973   1.388   1_556  A
C966        C980   1.412       .  A
C966        C974   1.385       .  A
C967        C978   1.414   1_554  A
C968        C979   1.412       .  A
C969        H981   1.081       .  S
C969        C970   1.373       .  A
C970        H982   1.082       .  S
C971        H983   1.081       .  S
C971        C972   1.370       .  A
C972        H984   1.082       .  S
C973        H985   1.082   1_554  S
C973        C974   1.377       .  A
C974        H986   1.082       .  S
C975        H987   1.082   1_554  S
C975        C976   1.377       .  A
C976        H988   1.082       .  S
C977       C1168   1.484       .  S
C978       C1152   1.480   1_565  S
C979       C1280   1.481   1_565  S
C980       C1379   1.478       .  S
C991        N992   1.363       .  A
C991        N996   1.360       .  A
C991       C1171   1.474       .  S
N992        C993   1.360       .  A
C993        N994   1.357       .  A
C993       C1027   1.467       .  S
N994        C995   1.356       .  A
C995        N996   1.358       .  A
C995       C2522   1.466       .  S
C997        N998   1.362       .  A
C997       N1002   1.363       .  A
C997       C1232   1.477       .  S
N998        C999   1.358       .  A
C999       N1000   1.353       .  A
C999       C1132   1.465       .  S
N1000      C1001   1.354       .  A
C1001      N1002   1.362       .  A
C1001      C1057   1.467       .  S
C1003      N1004   1.361       .  A
C1003      N1008   1.360       .  A
C1003      C1155   1.473       .  S
N1004      C1005   1.358       .  A
C1005      N1006   1.356       .  A
C1005      C1067   1.469       .  S
N1006      C1007   1.357       .  A
C1007      N1008   1.359       .  A
C1007      C1112   1.466       .  S
C1009      N1010   1.359       .  A
C1009      N1014   1.359       .  A
C1009      C1219   1.476       .  S
N1010      C1011   1.359       .  A
C1011      N1012   1.360       .  A
C1011      C1047   1.472       .  S
N1012      C1013   1.361       .  A
C1013      N1014   1.360       .  A
C1013      C1092   1.472       .  S
C1015      N1016   1.361       .  A
C1015      N1020   1.358       .  A
C1015      C1187   1.473       .  S
N1016      C1017   1.360       .  A
C1017      N1018   1.358       .  A
C1017      C1042   1.469       .  S
N1018      C1019   1.357       .  A
C1019      N1020   1.357       .  A
C1019      C1128   1.465       .  S
C1021      N1022   1.360       .  A
C1021      N1026   1.362       .  A
C1021      C1248   1.477       .  S
N1022      C1023   1.359       .  A
C1023      N1024   1.360       .  A
C1023      C1035   1.471       .  S
N1024      C1025   1.360       .  A
C1025      N1026   1.360       .  A
C1025      C1107   1.473       .  S
C1027      N1045   1.347       .  A
C1027      C1064   1.462       .  S
N1028      N1045   1.323       .  A
N1028      N1050   1.320       .  A
N1028     Co1065   2.078       .  S
C1029      N1054   1.341       .  A
C1029      C1067   1.457       .  S
C1029      H1074   1.082       .  S
H1030      C1071   1.082       .  S
C1031      N1055   1.343       .  A
C1031      C1035   1.461       .  S
C1031      H1060   1.082       .  S
Co1032     N1050   2.093       .  S
Co1032     N1040   2.082       .  S
Co1032     N1072   2.081       .  S
Co1032     N1048   2.090       .  S
Co1032    Cl1076   2.472       .  S
N1033      C1071   1.338       .  A
N1033      N1040   1.322       .  A
N1033     Co1034   2.089       .  S
Co1034     N1037   2.091       .  S
Co1034     N1054   2.086       .  S
Co1034     N1041   2.093       .  S
Co1034    Cl1076   2.432       .  S
C1035      N1073   1.349       .  A
N1036      N1043   1.322       .  A
N1036      N1066   1.327       .  A
N1036     Co1069   2.089       .  S
N1037      N1055   1.321       .  A
N1037      N1073   1.326       .  A
N1038      C1067   1.350       .  A
N1038      N1048   1.326       .  A
H1039      C1064   1.081       .  S
N1040      N1061   1.327       .  A
N1041      N1059   1.321       .  A
N1041      N1046   1.325       .  A
C1042      N1046   1.350       .  A
C1042      C1070   1.459       .  S
N1043      C1058   1.341       .  A
N1043     Co1065   2.092       .  S
C1044      N1072   1.340       .  A
C1044      C1047   1.458       .  S
C1044      H1078   1.082       .  S
C1047      N1068   1.352       .  A
N1048      N1054   1.321       .  A
N1049      C1075   1.335       .  A
N1049      N1051   1.320       .  A
N1049     Co1065   2.070       .  S
N1050      C1064   1.345       .  A
N1051      N1079   1.326       .  A
N1051     Co1069   2.084       .  S
H1052      C1075   1.082       .  S
H1053      C1070   1.082       .  S
N1055     Co1069   2.089       .  S
N1056      N1068   1.328       .  A
N1056      N1072   1.321       .  A
N1056     Co1065   2.099       .  S
C1057      N1061   1.349       .  A
C1057      C1071   1.458       .  S
C1058      C1077   1.458       .  S
C1058      H1062   1.082       .  S
N1059      C1070   1.343       .  A
N1059     Co1069   2.085       .  S
C1063      N1079   1.350       .  A
C1063      C1075   1.451       .  S
C1063      C1090   1.459       .  S
Co1065    Cl1076   2.433       .  S
N1066      C1077   1.351       .  A
Co1069    Cl1076   2.475       .  S
C1077      C1084   1.469       .  S
C1080      N1081   1.361       .  A
C1080      N1085   1.360       .  A
C1080      C1200   1.474       .  S
N1081      C1082   1.359       .  A
C1082      N1083   1.358       .  A
C1082      C1100   1.469       .  S
N1083      C1084   1.358       .  A
C1084      N1085   1.359       .  A
C1086      N1087   1.360       .  A
C1086      N1091   1.361       .  A
C1086      C1267   1.470       .  S
N1087      C1088   1.357       .  A
C1088      N1089   1.353       .  A
C1088      C1142   1.462       .  S
N1089      C1090   1.354       .  A
C1090      N1091   1.357       .  A
C1092      N1110   1.350       .  A
C1092      C1129   1.460       .  S
N1093      N1110   1.326       .  A
N1093      N1115   1.322       .  A
N1093     Co1130   2.094       .  S
C1094      C1132   1.457       .  S
C1094      H1139   1.082       .  S
H1095      C1136   1.082       .  S
C1096      N1120   1.342       .  A
C1096      C2500   1.458       .  S
C1096      H1125   1.082       .  S
Co1097     N1115   2.092       .  S
Co1097     N1105   2.090       .  S
Co1097     N1137   2.085       .  S
Co1097     N1113   2.087       .  S
Co1097    Cl1141   2.473       .  S
N1098      C2536   1.338   1_455  A
N1098      N1105   1.321       .  A
N1098     Co2499   2.078       .  S
Co1099     N2498   2.078       .  S
Co1099     N2502   2.096       .  S
Co1099     N1119   2.090       .  S
Co1099     N1106   2.091       .  S
Co1099    Cl2541   2.432       .  S
C1100      N1138   1.351       .  A
C1100      C2496   1.458       .  S
N1101      N1108   1.320       .  A
N1101      N1131   1.326       .  A
N1101     Co1134   2.084       .  S
N1102      N1120   1.320       .  A
N1102      N2538   1.325   1_455  A
N1102     Co2499   2.096       .  S
N1103      C2532   1.349   1_455  A
H1104      C1129   1.082       .  S
N1105      N1126   1.327       .  A
N1106      N2524   1.320       .  A
C1107      N1111   1.350       .  A
C1107      C2535   1.462       .  S
N1108      C1123   1.338       .  A
N1108     Co1130   2.078       .  S
C1109      C1112   1.460       .  S
C1109      H1143   1.082       .  S
C1112      N1133   1.348       .  A
N1113      N2519   1.322       .  A
N1114      N1116   1.321       .  A
N1114     Co1130   2.092       .  S
N1115      C1129   1.342       .  A
N1116     Co1134   2.079       .  S
H1117      C1140   1.082       .  S
H1118      C1135   1.082       .  S
N1119      N2513   1.322       .  A
N1120     Co1134   2.080       .  S
N1121      N1137   1.320       .  A
N1121     Co1130   2.079       .  S
C1122      N1126   1.351   1_655  A
C1122      C2395   1.466       .  S
C1122      C2536   1.454       .  S
C1123      C1142   1.456       .  S
C1123      H1127   1.082       .  S
N1124      N2506   1.320       .  A
N1124     Co1134   2.090       .  S
C1128      N1144   1.348       .  A
C1128      C1140   1.459       .  S
Co1130    Cl1141   2.435       .  S
N1131      C1142   1.349       .  A
C1132      N2503   1.349       .  A
Co1134    Cl1141   2.471       .  S
C1135      C2507   1.462   1_455  S
C1136      N2498   1.338       .  A
C1136      C2522   1.454       .  S
N1138      N2502   1.325       .  A
Cl1141    Co2499   2.432       .  S
C1145      C1150   1.381       .  A
C1145      C1146   1.404       .  A
C1145      O1151   1.319       .  A
C1146      H1157   1.082       .  S
C1146      C1147   1.403       .  A
C1147      C1156   1.362       .  A
C1147      C1148   1.381       .  A
C1148      C1149   1.403       .  A
C1148      O1154   1.319       .  A
C1149      C1150   1.402       .  A
C1152      C1153   1.389       .  A
C1153      H1159   1.082   1_545  S
O1154      C1155   1.331       .  A
C1155      C1156   1.392       .  A
C1156      H1160   1.083       .  S
C1161      C1166   1.381       .  A
C1161      C1162   1.404       .  A
C1161      O1167   1.320       .  A
C1162      H1173   1.082       .  S
C1162      C1163   1.404       .  A
C1163      C1172   1.364       .  A
C1163      C1164   1.380       .  A
C1164      C1165   1.404       .  A
C1164      O1170   1.319       .  A
C1165      H1174   1.082       .  S
C1165      C1166   1.403       .  A
C1166      C1169   1.362       .  A
O1167      C1168   1.331       .  A
C1168      C1169   1.391       .  A
C1169      H1175   1.082       .  S
O1170      C1171   1.332       .  A
C1171      C1172   1.392       .  A
C1172      H1176   1.082       .  S
C1177      C1182   1.380       .  A
C1177      C1178   1.406       .  A
C1177      O1183   1.320       .  A
C1178      H1189   1.082       .  S
C1178      C1179   1.405       .  A
C1179      C1188   1.363       .  A
C1179      C1180   1.380       .  A
C1180      C1181   1.402       .  A
C1180      O1186   1.319       .  A
C1181      H1190   1.082       .  S
C1181      C1182   1.402       .  A
C1182      C1185   1.360       .  A
O1183      C1184   1.332       .  A
C1184      C1185   1.389       .  A
C1185      H1191   1.082       .  S
O1186      C1187   1.330       .  A
C1187      C1188   1.394       .  A
C1188      H1192   1.083       .  S
C1193      C1198   1.380       .  A
C1193      C1194   1.406       .  A
C1193      O1199   1.321       .  A
C1194      H1205   1.082       .  S
C1194      C1195   1.405       .  A
C1195      C1204   1.365       .  A
C1195      C1196   1.380       .  A
C1196      C1197   1.402       .  A
C1196      O2602   1.316       .  A
C1197      H2606   1.082       .  S
C1197      C1198   1.401       .  A
C1198      C1201   1.361       .  A
O1199      C1200   1.333       .  A
C1200      C1201   1.391       .  A
C1201      H1207   1.083       .  S
O1202      C2596   1.316   1_455  A
O1202      C1203   1.330   1_455  A
C1203      C2604   1.393       .  A
C1204      H1208   1.082       .  S
C1204      C2603   1.393       .  A
H1206      C2597   1.082       .  S
C1209      C1214   1.380       .  A
C1209      C1210   1.404       .  A
C1209      O1215   1.318       .  A
C1210      H1221   1.082       .  S
C1210      C1211   1.403       .  A
C1211      C1220   1.362       .  A
C1211      C1212   1.380       .  A
C1212      C1213   1.406       .  A
C1212      O1218   1.321       .  A
C1213      H1222   1.082       .  S
C1213      C1214   1.405       .  A
C1214      C1217   1.365       .  A
O1215      C1216   1.331       .  A
C1216      C1217   1.392       .  A
C1217      H1223   1.082       .  S
O1218      C1219   1.333       .  A
C1219      C1220   1.392       .  A
C1220      H1224   1.083       .  S
C1225      C1230   1.380       .  A
C1225      C1226   1.406       .  A
C1225      O1231   1.322       .  A
C1226      H1237   1.082       .  S
C1226      C1227   1.406       .  A
C1227      C1236   1.364       .  A
C1227      C1228   1.380       .  A
C1228      C1229   1.404       .  A
C1228      O2634   1.320       .  A
C1229      H2638   1.082       .  S
C1229      C1230   1.403       .  A
C1230      C1233   1.362       .  A
O1231      C1232   1.332       .  A
C1232      C1233   1.392       .  A
C1233      H1239   1.083       .  S
O1234      C2628   1.320       .  A
O1234      C2635   1.331       .  A
C1235      C2311   1.484       .  S
C1235      C1236   1.392       .  A
C1235      O2634   1.331       .  A
C1236      H1240   1.082       .  S
H1238      C2629   1.082       .  S
C1241      C1246   1.380       .  A
C1241      C1242   1.405       .  A
C1241      O1247   1.321       .  A
C1242      H1253   1.082       .  S
C1242      C1243   1.405       .  A
C1243      C1252   1.363       .  A
C1244      C1245   1.405       .  A
C1244      O1250   1.321   1_545  A
C1245      H1254   1.082   1_545  S
C1246      C1249   1.364       .  A
O1247      C1248   1.333       .  A
C1248      C1249   1.393       .  A
C1249      H1255   1.082       .  S
O1250      C1251   1.332   1_565  A
C1252      H1256   1.082       .  S
C1257      C1262   1.381       .  A
C1257      C1258   1.403       .  A
C1257      O1263   1.319       .  A
C1258      H1269   1.082       .  S
C1258      C1259   1.402       .  A
C1259      C1268   1.361       .  A
C1259      C1260   1.380       .  A
C1260      C1261   1.404       .  A
C1260      O1266   1.319       .  A
C1261      H1270   1.082       .  S
C1261      C1262   1.403       .  A
C1262      C1265   1.363       .  A
O1263      C1264   1.330       .  A
C1264      C1265   1.391       .  A
C1265      H1271   1.082       .  S
O1266      C1267   1.331       .  A
C1267      C1268   1.391       .  A
C1268      H1272   1.083       .  S
C1273      C1278   1.380       .  A
C1273      C1274   1.404       .  A
C1273      O1279   1.319       .  A
C1274      H1285   1.082       .  S
C1274      C1275   1.404       .  A
C1275      C1284   1.362       .  A
C1275      C1276   1.380       .  A
C1276      C1277   1.405       .  A
C1276      O1282   1.321       .  A
C1277      H1286   1.082       .  S
C1277      C1278   1.405       .  A
C1280      C1281   1.392       .  A
C1281      H1287   1.082       .  S
O1282      C1283   1.332       .  A
C1283      C1284   1.393       .  A
C1284      H1288   1.083       .  S
C1289      C1294   1.381       .  A
C1289      C1290   1.402       .  A
C1289      O1295   1.318       .  A
C1290      H1301   1.082       .  S
C1290      C1291   1.402       .  A
C1291      C1300   1.361       .  A
C1291      C1292   1.381       .  A
C1292      C1293   1.404       .  A
C1292      O1298   1.319       .  A
C1293      H1302   1.082       .  S
C1293      C1294   1.403       .  A
C1294      C1297   1.362       .  A
O1295      C1296   1.330       .  A
C1296      C1297   1.390       .  A
C1297      H1303   1.082       .  S
O1298      C1299   1.332       .  A
C1299      C1300   1.391       .  A
C1300      H1304   1.083       .  S
C1305      C1310   1.380       .  A
C1305      C1306   1.404       .  A
C1305      O1311   1.320       .  A
C1306      H1317   1.082       .  S
C1306      C1307   1.404       .  A
C1307      C1308   1.381       .  A
C1308      C1309   1.402       .  A
C1309      H1318   1.082       .  S
C1309      C1310   1.401       .  A
C1310      C1313   1.360       .  A
O1311      C1312   1.331       .  A
C1312      C1313   1.390       .  A
C1313      H1319   1.082       .  S
O1314      C1315   1.330   1_565  A
C1315      C1316   1.392       .  A
C1316      H1320   1.082       .  S
C1321      C1326   1.381       .  A
C1321      C1322   1.401       .  A
C1321      O1327   1.318       .  A
C1322      H1333   1.082       .  S
C1322      C1323   1.401       .  A
C1323      C1332   1.359       .  A
C1323      C1324   1.380       .  A
C1324      C1325   1.404       .  A
C1324      O1330   1.320       .  A
C1325      H1334   1.082       .  S
C1325      C1326   1.403       .  A
C1326      C1329   1.362       .  A
O1327      C1328   1.330       .  A
C1328      C1329   1.390       .  A
C1329      H1335   1.082       .  S
O1330      C1331   1.331       .  A
C1331      C1332   1.391       .  A
C1332      H1336   1.083       .  S
C1337      C1342   1.380       .  A
C1337      C1338   1.405       .  A
C1337      O1343   1.321       .  A
C1338      H1349   1.082       .  S
C1338      C1339   1.405       .  A
C1339      C1348   1.363       .  A
C1339      C1340   1.380       .  A
C1340      C1341   1.406       .  A
C1340      O1346   1.322       .  A
C1341      H2750   1.082       .  S
C1341      C1342   1.405       .  A
C1342      C2745   1.365       .  A
O1343      C1344   1.332       .  A
C1344      C2310   1.488       .  S
C1344      C2745   1.391       .  A
C1345      H1351   1.082       .  S
C1345      C2742   1.365   1_455  A
C1345      C2744   1.391   1_455  A
O1346      C1347   1.332       .  A
C1347      C1348   1.394       .  A
C1348      H1352   1.083       .  S
H1350      C2741   1.082       .  S
C1353      C1358   1.380       .  A
C1353      C1354   1.404       .  A
C1353      O1359   1.319       .  A
C1354      H1365   1.082       .  S
C1354      C1355   1.403       .  A
C1355      C1364   1.362       .  A
C1355      C1356   1.380       .  A
C1356      C1357   1.406       .  A
C1356      O1362   1.322       .  A
C1357      H1366   1.082       .  S
C1357      C1358   1.406       .  A
C1358      C1361   1.366       .  A
O1359      C1360   1.332       .  A
C1360      C1361   1.392       .  A
C1361      H1367   1.082       .  S
O1362      C1363   1.332       .  A
C1363      C1364   1.393       .  A
C1364      H1368   1.083       .  S
C1369      C1374   1.380       .  A
C1369      C1370   1.403       .  A
C1369      O1375   1.320       .  A
C1370      H1381   1.082       .  S
C1370      C1371   1.403       .  A
C1371      C1380   1.360       .  A
C1371      C1372   1.381       .  A
C1372      C1373   1.402       .  A
C1372      O1378   1.319       .  A
C1373      H1382   1.082       .  S
C1373      C1374   1.402       .  A
C1374      C1377   1.360       .  A
O1375      C1376   1.331       .  A
C1376      C1377   1.391       .  A
C1377      H1383   1.083       .  S
O1378      C1379   1.330       .  A
C1379      C1380   1.390       .  A
C1380      H1384   1.083       .  S
C1385      C1390   1.380       .  A
C1385      C2786   1.403       .  A
C1385      O1391   1.319       .  A
C1386      H1397   1.082   1_655  S
C1386      C2785   1.403       .  A
C1386      C1387   1.403       .  A
C1387      C1396   1.362   1_655  A
C1387      C2788   1.381       .  A
C1388      C2787   1.381       .  A
C1388      C1389   1.405       .  A
C1388      O1394   1.320       .  A
C1389      H1398   1.082       .  S
C1389      C1390   1.404       .  A
C1390      C1393   1.363       .  A
O1391      C1392   1.331       .  A
C1392      C1393   1.393       .  A
C1393      H1399   1.083       .  S
O1394      C2795   1.331       .  A
C1395      C1396   1.390   1_655  A
C1395      O2794   1.331       .  A
C1396      H1400   1.082       .  S
C1401      N1402   1.360       .  A
C1401      N1406   1.361       .  A
C1401      C2092   1.473       .  S
N1402      C1403   1.358       .  A
C1403      N1404   1.356       .  A
C1403      C1532   1.464       .  S
N1404      C1405   1.356       .  A
C1405      N1406   1.359       .  A
C1405      C1425   1.466       .  S
C1407      N1408   1.359       .  A
C1407      N1412   1.359       .  A
C1407      C2076   1.471       .  S
N1408      C1409   1.356       .  A
C1409      N1410   1.357       .  A
C1409      C1475   1.465       .  S
N1410      C1411   1.358       .  A
C1411      N1412   1.359       .  A
C1411      C1510   1.465       .  S
C1413      N1414   1.361       .  A
C1413      N1418   1.357       .  A
C1413      C2063   1.477       .  S
N1414      C1415   1.363       .  A
C1415      N1416   1.361       .  A
C1415      C1502   1.476       .  S
N1416      C1417   1.360       .  A
C1417      N1418   1.357       .  A
C1417      C1445   1.469       .  S
C1419      N1420   1.360       .  A
C1419      N1424   1.362       .  A
C1419      C2047   1.478       .  S
N1420      C1421   1.357       .  A
C1421      N1422   1.360       .  A
C1421      C1517   1.471       .  S
N1422      C1423   1.361       .  A
C1423      N1424   1.362       .  A
N1426      N1443   1.323       .  A
N1426      N1448   1.320       .  A
N1426     Co1463   2.080       .  S
C1427      N2152   1.340       .  A
C1427      C2165   1.456       .  S
C1427      H1472   1.082       .  S
H1428      C1469   1.082       .  S
C1429      N1453   1.344       .  A
C1429      C2133   1.462       .  S
C1429      H1458   1.082       .  S
Co1430     N1448   2.090       .  S
Co1430     N1438   2.088       .  S
Co1430     N1470   2.084       .  S
Co1430     N1446   2.089       .  S
Co1430    Cl1474   2.473       .  S
N1431      C2169   1.337       .  A
N1431      N1438   1.322       .  A
N1431     Co1432   2.084       .  S
Co1432     N1435   2.093       .  S
Co1432     N1452   2.084       .  S
Co1432     N1439   2.093       .  S
Co1432    Cl1474   2.433       .  S
C1433      N1471   1.350       .  A
C1433      C2129   1.462   1_545  S
N1434      N1441   1.321       .  A
N1434      N1464   1.325       .  A
N1434     Co1467   2.085       .  S
N1435      N1453   1.320       .  A
N1435      N2171   1.326       .  A
N1436      C1465   1.350       .  A
N1436      N1446   1.327       .  A
H1437      C1462   1.081       .  S
N1438      N1459   1.327       .  A
N1439      N1457   1.320       .  A
N1439      N2144   1.326       .  A
C1440      N2144   1.351       .  A
C1440      C1468   1.456       .  S
C1440      C2200   1.467       .  S
N1441      C1456   1.340       .  A
N1441     Co1463   2.086       .  S
C1442      N1470   1.340       .  A
C1442      C1445   1.459       .  S
C1442      H1476   1.082       .  S
N1444      C2140   1.350       .  A
N1444      N2139   1.326       .  A
C1445      N1466   1.349       .  A
N1446      N1452   1.321       .  A
N1447      C1473   1.336       .  A
N1447      N1449   1.320       .  A
N1447     Co1463   2.073       .  S
N1448      C1462   1.344       .  A
N1449      N1477   1.326       .  A
N1449     Co1467   2.085       .  S
H1450      C1473   1.082       .  S
H1451      C1468   1.082       .  S
N1452      C2127   1.340       .  A
N1453     Co1467   2.092       .  S
N1454      N1466   1.326       .  A
N1454      N1470   1.321       .  A
N1454     Co1463   2.090       .  S
C1455      N2159   1.351   1_545  A
C1455      C1469   1.454       .  S
C1456      H1460   1.082       .  S
N1457      C1468   1.340       .  A
N1457     Co1467   2.079       .  S
N1459      C2155   1.350       .  A
C1461      N1477   1.350       .  A
C1461      C1473   1.453       .  S
C1461      C1482   1.460       .  S
Co1463    Cl1474   2.432       .  S
C1465      C2127   1.456       .  S
C1465      C2194   1.467       .  S
Co1467    Cl1474   2.471       .  S
C1469      N2131   1.337       .  A
N1471      N2135   1.326       .  A
C1478      N1479   1.361       .  A
C1478      N1483   1.360       .  A
C1478      C2031   1.470       .  S
N1479      C1480   1.359       .  A
C1480      N1481   1.354       .  A
C1480      C1552   1.463       .  S
N1481      C1482   1.353       .  A
C1482      N1483   1.356       .  A
C1484      N1485   1.362       .  A
C1484      N1489   1.360       .  A
C1484      C2012   1.471       .  S
N1485      C1486   1.357       .  A
C1486      N1487   1.354       .  A
N1487      C1488   1.354       .  A
C1488      N1489   1.358       .  A
C1488      C1542   1.462       .  S
C1490      N1491   1.360       .  A
C1490      N1495   1.361       .  A
C1490      C1999   1.473       .  S
N1491      C1492   1.359       .  A
C1492      N1493   1.357       .  A
C1492      C1522   1.466       .  S
N1493      C1494   1.357       .  A
C1494      N1495   1.358       .  A
C1494      C2165   1.467       .  S
C1496      N1497   1.361       .  A
C1496      N1501   1.359       .  A
C1496      C1983   1.476       .  S
N1497      C1498   1.362       .  A
C1498      N1499   1.358       .  A
C1498      C1538   1.470       .  S
N1499      C1500   1.357       .  A
C1500      N1501   1.357       .  A
C1500      C2140   1.467       .  S
C1502      N1520   1.352       .  A
C1502      C1539   1.459       .  S
N1503      N1520   1.328       .  A
N1503      N1525   1.321       .  A
N1503     Co1540   2.104       .  S
C1504      N1529   1.338       .  A
C1504      C1542   1.456       .  S
C1504      H1549   1.082       .  S
H1505      C1546   1.082       .  S
C1506      N1530   1.341       .  A
C1506      C1510   1.457       .  S
C1506      H1535   1.081       .  S
Co1507     N1525   2.086       .  S
Co1507     N1515   2.088       .  S
Co1507     N1547   2.083       .  S
Co1507     N1523   2.081       .  S
Co1507    Cl1551   2.472       .  S
N1508      C1546   1.338       .  A
N1508      N1515   1.320       .  A
N1508     Co1509   2.079       .  S
Co1509     N1512   2.088       .  S
Co1509     N1529   2.082       .  S
Co1509     N1516   2.087       .  S
Co1509    Cl1551   2.432       .  S
C1510      N1548   1.349       .  A
N1511      N1518   1.321       .  A
N1511      N1541   1.326       .  A
N1511     Co1544   2.085       .  S
N1512      N1530   1.320       .  A
N1512      N1548   1.325       .  A
N1513      C1542   1.348       .  A
N1513      N1523   1.325       .  A
H1514      C1539   1.082       .  S
N1515      N1536   1.326       .  A
N1516      N1534   1.320       .  A
N1516      N1521   1.326       .  A
C1517      N1521   1.349       .  A
C1517      C1545   1.462       .  S
N1518      C1533   1.338       .  A
N1518     Co1540   2.081       .  S
C1519      N1547   1.342       .  A
C1519      C1522   1.459       .  S
C1519      H1553   1.082       .  S
C1522      N1543   1.349       .  A
N1523      N1529   1.321       .  A
N1524      C1550   1.341       .  A
N1524      N1526   1.322       .  A
N1524     Co1540   2.097       .  S
N1525      C1539   1.342       .  A
N1526      N1554   1.326       .  A
N1526     Co1544   2.083       .  S
H1527      C1550   1.082       .  S
H1528      C1545   1.082       .  S
N1530     Co1544   2.082       .  S
N1531      N1543   1.324       .  A
N1531      N1547   1.320       .  A
N1531     Co1540   2.088       .  S
C1532      N1536   1.351       .  A
C1532      C1546   1.454       .  S
C1533      C1552   1.456       .  S
C1533      H1537   1.082       .  S
N1534      C1545   1.344       .  A
N1534     Co1544   2.091       .  S
C1538      N1554   1.349       .  A
C1538      C1550   1.459       .  S
Co1540    Cl1551   2.434       .  S
N1541      C1552   1.349       .  A
Co1544    Cl1551   2.472       .  S
N1555      C1560   1.355       .  A
N1555      C1559   1.353       .  A
N1555      H1587   1.031       .  S
N1556      C1563   1.352       .  A
N1556      C1564   1.353       .  A
N1557      C1562   1.355       .  A
N1557      C1561   1.355       .  A
N1557      H1588   1.030       .  S
N1558      C1565   1.352       .  A
N1558      C1566   1.351       .  A
C1559      C1567   1.388       .  A
C1559      C1575   1.420       .  A
C1560      C1576   1.421       .  A
C1560      C1568   1.388       .  A
C1561      C1569   1.387       .  A
C1561      C1578   1.417       .  A
C1562      C1577   1.418       .  A
C1562      C1570   1.388       .  A
C1563      C1575   1.418       .  A
C1563      C1571   1.388       .  A
C1564      C1578   1.415       .  A
C1564      C1572   1.385       .  A
C1565      C1573   1.387       .  A
C1565      C1576   1.417       .  A
C1566      C1574   1.386       .  A
C1566      C1577   1.413       .  A
C1567      H1579   1.082       .  S
C1567      C1568   1.374       .  A
C1568      H1580   1.082       .  S
C1569      H1581   1.082       .  S
C1569      C1570   1.371       .  A
C1570      H1582   1.082       .  S
C1571      H1583   1.082       .  S
C1571      C1572   1.377       .  A
C1572      H1584   1.082       .  S
C1573      H2285   1.082       .  S
C1573      C1574   1.377       .  A
C1574      H2286   1.082       .  S
C1575      C1964   1.480       .  S
C1576      C1951   1.485       .  S
C1577      C2015   1.480       .  S
C1578      C2060   1.485       .  S
H1585      C2273   1.082       .  S
H1586      C2274   1.082       .  S
N1589      C1594   1.355       .  A
N1589      C1593   1.354       .  A
N1589      H1621   1.029       .  S
N1590      C1597   1.351       .  A
N1590      C1598   1.353       .  A
N1591      C1596   1.354       .  A
N1591      C1595   1.355       .  A
N1591      H1622   1.034   1_556  S
N1592      C1599   1.353       .  A
N1592      C1600   1.353       .  A
C1593      C1601   1.389       .  A
C1593      C1609   1.423       .  A
C1594      C1610   1.423       .  A
C1594      C1602   1.388       .  A
C1595      C1603   1.388       .  A
C1595      C1612   1.418       .  A
C1596      C1611   1.419       .  A
C1596      C1604   1.389       .  A
C1597      C1609   1.418       .  A
C1597      C1605   1.388       .  A
C1598      C1612   1.414   1_554  A
C1598      C1606   1.385       .  A
C1599      C1610   1.420       .  A
C1600      C1611   1.416   1_554  A
C1601      H1613   1.082       .  S
C1601      C1602   1.374       .  A
C1602      H1614   1.082       .  S
C1603      H1615   1.082       .  S
C1603      C1604   1.369       .  A
C1604      H1616   1.082       .  S
C1605      H1617   1.082       .  S
C1605      C1606   1.376       .  A
C1606      H1618   1.082       .  S
C1607      H1619   1.082       .  S
C1607      C1608   1.377       .  A
C1608      H1620   1.082       .  S
C1609      C2028   1.479       .  S
C1612      C1916   1.484       .  S
N1623      C1628   1.355       .  A
N1623      C1627   1.354       .  A
N1623      H1655   1.033       .  S
N1624      C1631   1.350       .  A
N1624      C1632   1.352       .  A
N1625      C1630   1.352       .  A
N1625      C1629   1.354       .  A
N1625      H1656   1.034       .  S
N1626      C1633   1.352       .  A
N1626      C1634   1.352       .  A
C1627      C1635   1.388       .  A
C1627      C1643   1.420       .  A
C1628      C1644   1.419       .  A
C1628      C1636   1.387       .  A
C1629      C1637   1.387       .  A
C1629      C1646   1.415       .  A
C1630      C1645   1.416       .  A
C1630      C1638   1.389       .  A
C1631      C1643   1.415       .  A
C1631      C1639   1.387       .  A
C1632      C1646   1.412       .  A
C1632      C1640   1.385       .  A
C1633      C1644   1.416       .  A
C1634      C1645   1.413       .  A
C1635      H1647   1.082       .  S
C1635      C1636   1.373       .  A
C1636      H1648   1.082       .  S
C1637      H1649   1.082       .  S
C1637      C1638   1.369       .  A
C1638      H1650   1.081       .  S
C1639      H1651   1.082       .  S
C1639      C1640   1.376       .  A
C1640      H1652   1.082       .  S
C1641      H1653   1.082       .  S
C1641      C1642   1.377       .  A
C1642      H1654   1.082       .  S
C1643      C1996   1.479       .  S
C1644      C2095   1.482       .  S
C1645      C1903   1.477       .  S
C1646      C1884   1.481       .  S
N1657      C1662   1.355       .  A
N1657      C1661   1.356       .  A
N1657      H1689   1.031       .  S
N1658      C1665   1.351   1_554  A
N1658      C1666   1.351       .  A
N1659      C1664   1.354       .  A
N1659      C1663   1.353       .  A
N1659      H1690   1.034       .  S
N1660      C1667   1.351       .  A
N1660      C1668   1.352       .  A
C1661      C1669   1.389       .  A
C1661      C1677   1.424       .  A
C1662      C1678   1.422       .  A
C1662      C1670   1.388       .  A
C1663      C1671   1.389       .  A
C1663      C1680   1.417       .  A
C1664      C1679   1.416       .  A
C1664      C1672   1.387       .  A
C1665      C1677   1.416       .  A
C1665      C1673   1.388   1_556  A
C1666      C1680   1.412       .  A
C1666      C1674   1.385       .  A
C1667      C2375   1.387       .  A
C1667      C1678   1.416   1_554  A
C1668      C2376   1.385       .  A
C1668      C1679   1.413       .  A
C1669      H1681   1.081       .  S
C1669      C1670   1.373       .  A
C1670      H1682   1.082       .  S
C1671      H1683   1.081       .  S
C1671      C1672   1.371       .  A
C1672      H1684   1.082       .  S
C1673      H1685   1.082   1_554  S
C1673      C1674   1.377       .  A
C1674      H1686   1.082       .  S
C1675      H1687   1.082   1_554  S
C1675      C2367   1.388   1_545  A
C1675      C1676   1.377       .  A
C1676      H1688   1.082       .  S
C1676      C2368   1.385   1_545  A
C1677      C1868   1.484       .  S
C1678      C1852   1.481       .  S
C1679      C1980   1.483       .  S
C1680      C2079   1.478       .  S
C1691      N1692   1.362       .  A
C1691      N1696   1.360       .  A
C1691      C1871   1.474       .  S
N1692      C1693   1.360       .  A
C1693      N1694   1.357       .  A
C1693      C1727   1.467       .  S
N1694      C1695   1.357       .  A
C1695      N1696   1.358       .  A
C1697      N1698   1.363       .  A
C1697      N1702   1.363       .  A
C1697      C1932   1.477       .  S
N1698      C1699   1.358       .  A
C1699      N1700   1.353       .  A
C1699      C1832   1.467       .  S
N1700      C1701   1.354       .  A
C1701      N1702   1.361       .  A
C1701      C1757   1.466       .  S
C1703      N1704   1.361       .  A
C1703      N1708   1.360       .  A
C1703      C1855   1.472       .  S
N1704      C1705   1.359       .  A
C1705      N1706   1.356       .  A
C1705      C1767   1.468       .  S
N1706      C1707   1.356       .  A
C1707      N1708   1.358       .  A
C1707      C1812   1.463       .  S
C1709      N1710   1.360       .  A
C1709      N1714   1.359       .  A
C1709      C1919   1.477       .  S
N1710      C1711   1.359       .  A
C1711      N1712   1.360       .  A
C1711      C1747   1.473       .  S
N1712      C1713   1.361       .  A
C1713      N1714   1.360       .  A
C1713      C1792   1.471       .  S
C1715      N1716   1.360       .  A
C1715      N1720   1.358       .  A
C1715      C1887   1.472       .  S
N1716      C1717   1.360       .  A
C1717      N1718   1.357       .  A
C1717      C1742   1.467       .  S
N1718      C1719   1.356       .  A
C1719      N1720   1.357       .  A
C1719      C1828   1.464       .  S
C1721      N1722   1.360       .  A
C1721      N1726   1.362       .  A
C1721      C1948   1.478       .  S
N1722      C1723   1.359       .  A
C1723      N1724   1.359       .  A
C1723      C1735   1.470       .  S
N1724      C1725   1.360       .  A
C1725      N1726   1.360       .  A
C1725      C1807   1.473       .  S
C1727      N1745   1.347       .  A
C1727      C1764   1.462       .  S
N1728      N1745   1.323       .  A
N1728      N1750   1.320       .  A
N1728     Co1765   2.080       .  S
C1729      N1754   1.341       .  A
C1729      C1767   1.458       .  S
C1729      H1774   1.082       .  S
H1730      C1771   1.082       .  S
C1731      N1755   1.343       .  A
C1731      C1735   1.460       .  S
C1731      H1760   1.082       .  S
Co1732     N1750   2.091       .  S
Co1732     N1740   2.082       .  S
Co1732     N1772   2.081       .  S
Co1732     N1748   2.088       .  S
Co1732    Cl1776   2.473       .  S
N1733      C1771   1.338       .  A
N1733      N1740   1.322       .  A
N1733     Co1734   2.087       .  S
Co1734     N1737   2.093       .  S
Co1734     N1754   2.089       .  S
Co1734     N1741   2.092       .  S
Co1734    Cl1776   2.432       .  S
C1735      N1773   1.350       .  A
N1736      N1743   1.321       .  A
N1736      N1766   1.326       .  A
N1736     Co1769   2.087       .  S
N1737      N1755   1.321       .  A
N1737      N1773   1.326       .  A
N1738      C1767   1.350       .  A
N1738      N1748   1.326       .  A
H1739      C1764   1.081       .  S
N1740      N1761   1.326       .  A
N1741      N1759   1.321       .  A
N1741      N1746   1.324       .  A
C1742      N1746   1.350       .  A
C1742      C1770   1.458       .  S
N1743      C1758   1.341       .  A
N1743     Co1765   2.092       .  S
C1744      N1772   1.340       .  A
C1744      C1747   1.458       .  S
C1744      H1778   1.082       .  S
C1747      N1768   1.352       .  A
N1748      N1754   1.321       .  A
N1749      C1775   1.334       .  A
N1749      N1751   1.320       .  A
N1749     Co1765   2.071       .  S
N1750      C1764   1.344       .  A
N1751      N1779   1.327       .  A
N1751     Co1769   2.085       .  S
H1752      C1775   1.082       .  S
H1753      C1770   1.082       .  S
N1755     Co1769   2.088       .  S
N1756      N1768   1.328       .  A
N1756      N1772   1.320       .  A
N1756     Co1765   2.100       .  S
C1757      N1761   1.349       .  A
C1757      C1771   1.457       .  S
C1758      C1777   1.457       .  S
C1758      H1762   1.082       .  S
N1759      C1770   1.342       .  A
N1759     Co1769   2.082       .  S
C1763      N1779   1.350       .  A
C1763      C1775   1.451       .  S
C1763      C1790   1.460       .  S
Co1765    Cl1776   2.431       .  S
N1766      C1777   1.350       .  A
Co1769    Cl1776   2.476       .  S
C1777      C1784   1.469       .  S
C1780      N1781   1.360       .  A
C1780      N1785   1.359       .  A
C1780      C1900   1.473       .  S
N1781      C1782   1.359       .  A
C1782      N1783   1.358       .  A
C1782      C1800   1.469   1_655  S
N1783      C1784   1.358       .  A
C1784      N1785   1.359       .  A
C1786      N1787   1.360       .  A
C1786      N1791   1.361       .  A
C1786      C1967   1.470       .  S
N1787      C1788   1.357       .  A
C1788      N1789   1.353       .  A
C1788      C1842   1.463       .  S
N1789      C1790   1.354       .  A
C1790      N1791   1.357       .  A
C1792      N1810   1.350       .  A
C1792      C1829   1.460       .  S
N1793      N1810   1.326       .  A
N1793      N1815   1.322       .  A
N1793     Co1830   2.093       .  S
C1794      N2519   1.339   1_645  A
C1794      C1832   1.458       .  S
C1794      H1839   1.082       .  S
H1795      C1836   1.082       .  S
C1796      N1820   1.342       .  A
C1796      H1825   1.082       .  S
Co1797     N1815   2.091       .  S
Co1797     N1805   2.092       .  S
Co1797     N1837   2.088       .  S
Co1797     N1813   2.085       .  S
Co1797    Cl1841   2.473       .  S
N1798      N1805   1.321       .  A
Co1799     N1819   2.087       .  S
Co1799     N1806   2.090       .  S
C1800      N1838   1.350   1_455  A
N1801      N1808   1.320       .  A
N1801      N1831   1.326       .  A
N1801     Co1834   2.086       .  S
N1802      N1820   1.320       .  A
N1803      N2513   1.327       .  A
H1804      C1829   1.082       .  S
N1805      N1826   1.327       .  A
N1806      N2511   1.326   1_455  A
C1807      N1811   1.350   1_545  A
N1808      C1823   1.339       .  A
N1808     Co1830   2.081       .  S
C1809      N2537   1.343       .  A
C1809      C1812   1.459   1_565  S
C1809      H1843   1.082   1_565  S
N1811      N2506   1.326   1_655  A
C1812      N1833   1.347   1_545  A
N1813      N2503   1.326       .  A
N1814      C2540   1.342       .  A
N1814      N1816   1.321       .  A
N1814     Co1830   2.092       .  S
N1815      C1829   1.342       .  A
N1816      N2544   1.324       .  A
N1816     Co1834   2.080       .  S
H1817      C1840   1.082       .  S
H1818      C1835   1.082   1_545  S
N1819      C2494   1.338   1_455  A
N1820     Co1834   2.080       .  S
N1821      N2533   1.323       .  A
N1821      N1837   1.321       .  A
N1821     Co1830   2.083       .  S
C1822      N1826   1.352       .  A
C1823      C1842   1.456       .  S
C1823      H1827   1.082       .  S
N1824      C2535   1.345       .  A
N1824     Co1834   2.093       .  S
C1828      N1844   1.348       .  A
C1828      C1840   1.459       .  S
Co1830    Cl1841   2.436       .  S
N1831      C1842   1.349       .  A
N1833      N2521   1.322       .  A
Co1834    Cl1841   2.471       .  S
C1835      N2524   1.344       .  A
N1837      C2509   1.344       .  A
C1840      N2514   1.342   1_545  A
N1844      N2516   1.324   1_545  A
C1845      C1850   1.381       .  A
C1845      C1846   1.404       .  A
C1845      O1851   1.319       .  A
C1846      H1857   1.082       .  S
C1846      C1847   1.403       .  A
C1847      C1856   1.362       .  A
C1847      C1848   1.381       .  A
C1848      C1849   1.403       .  A
C1848      O1854   1.319       .  A
C1849      H2558   1.082   1_545  S
C1849      C1850   1.402       .  A
C1850      C2553   1.361       .  A
O1851      C2552   1.331       .  A
C1852      C1853   1.389       .  A
C1852      O2551   1.331       .  A
C1853      H1859   1.082       .  S
C1853      C2550   1.362       .  A
O1854      C1855   1.331       .  A
C1855      C1856   1.392       .  A
C1856      H1860   1.083       .  S
H1858      C2549   1.082       .  S
C1861      C1866   1.381       .  A
C1861      C1862   1.404       .  A
C1861      O1867   1.320       .  A
C1862      H1873   1.082       .  S
C1862      C1863   1.404       .  A
C1863      C1872   1.364       .  A
C1863      C1864   1.380       .  A
C1864      C1865   1.404       .  A
C1864      O1870   1.319       .  A
C1865      H1874   1.082       .  S
C1865      C1866   1.403       .  A
C1866      C1869   1.361       .  A
O1867      C1868   1.331       .  A
C1868      C1869   1.391       .  A
C1869      H1875   1.082       .  S
O1870      C1871   1.332       .  A
C1871      C1872   1.392       .  A
C1872      H1876   1.082       .  S
C1877      C1882   1.381       .  A
C1877      C1878   1.405       .  A
C1877      O1883   1.320       .  A
C1878      H1889   1.082       .  S
C1878      C1879   1.405       .  A
C1879      C1888   1.363       .  A
C1879      C1880   1.380       .  A
C1880      C1881   1.402       .  A
C1880      O1886   1.319       .  A
C1881      H1890   1.082       .  S
C1881      C1882   1.402       .  A
C1882      C1885   1.360       .  A
O1883      C1884   1.332       .  A
C1884      C1885   1.389       .  A
C1885      H1891   1.082       .  S
O1886      C1887   1.330       .  A
C1887      C1888   1.393       .  A
C1888      H1892   1.083       .  S
C1893      C1898   1.380       .  A
C1893      C1894   1.405       .  A
C1893      O1899   1.320       .  A
C1894      H1905   1.082       .  S
C1894      C1895   1.404       .  A
C1895      C1904   1.365       .  A
C1895      C1896   1.380       .  A
C1896      C1897   1.402   1_655  A
C1897      C1898   1.400   1_455  A
C1898      C1901   1.361       .  A
O1899      C1900   1.332       .  A
C1900      C1901   1.391       .  A
C1901      H1907   1.083   1_655  S
O1902      C1903   1.330       .  A
C1904      H1908   1.082       .  S
C1909      C1914   1.380       .  A
C1909      C1910   1.403       .  A
C1909      O1915   1.318       .  A
C1910      H1921   1.082       .  S
C1910      C1911   1.402       .  A
C1911      C1920   1.362       .  A
C1911      C1912   1.380       .  A
C1912      C1913   1.407       .  A
C1912      O1918   1.322       .  A
C1913      H1922   1.082       .  S
C1913      C1914   1.406       .  A
C1914      C1917   1.366       .  A
O1915      C1916   1.331       .  A
C1916      C1917   1.393       .  A
C1917      H1923   1.082       .  S
O1918      C1919   1.333       .  A
C1919      C1920   1.391       .  A
C1920      H1924   1.082       .  S
C1925      C1930   1.380       .  A
C1925      C1926   1.406       .  A
C1925      O1931   1.322       .  A
C1926      H1937   1.082       .  S
C1926      C1927   1.406       .  A
C1927      C1936   1.364       .  A
C1927      C1928   1.380   1_655  A
C1928      C1929   1.404       .  A
C1929      C1930   1.403   1_455  A
C1930      C1933   1.361       .  A
O1931      C1932   1.333       .  A
C1932      C1933   1.392       .  A
C1933      H1939   1.082   1_655  S
C1935      C1936   1.392   1_455  A
C1936      H1940   1.082       .  S
C1941      C1946   1.380       .  A
C1941      C1942   1.406       .  A
C1941      O1947   1.321       .  A
C1942      H1953   1.082       .  S
C1942      C1943   1.405       .  A
C1943      C1952   1.364       .  A
C1943      C2644   1.380       .  A
C1944      C2643   1.380       .  A
C1944      C1945   1.405       .  A
C1944      O1950   1.321       .  A
C1945      H1954   1.082       .  S
C1945      C2646   1.405       .  A
C1946      C2645   1.405       .  A
C1946      C1949   1.364       .  A
O1947      C1948   1.333       .  A
C1948      C1949   1.393       .  A
C1949      H1955   1.082       .  S
O1950      C1951   1.332       .  A
C1951      C2652   1.391       .  A
C1952      H1956   1.082       .  S
C1952      C2651   1.391       .  A
C1957      C1962   1.381       .  A
C1957      C1958   1.402       .  A
C1957      O1963   1.318       .  A
C1958      H1969   1.082       .  S
C1958      C1959   1.401       .  A
C1959      C1968   1.361       .  A
C1959      C1960   1.380       .  A
C1960      C1961   1.405       .  A
C1960      O1966   1.319       .  A
C1961      H1970   1.082       .  S
C1961      C1962   1.404       .  A
C1962      C1965   1.363       .  A
O1963      C1964   1.329       .  A
C1964      C1965   1.391       .  A
C1965      H1971   1.082       .  S
O1966      C1967   1.331       .  A
C1967      C1968   1.391       .  A
C1968      H1972   1.083       .  S
C1973      C1978   1.381       .  A
C1973      C1974   1.404   1_545  A
C1973      O1979   1.319   1_545  A
C1974      H1985   1.082       .  S
C1974      C1975   1.403   1_565  A
C1975      C1984   1.362       .  A
C1975      C1976   1.380       .  A
C1976      C1977   1.405       .  A
C1976      O1982   1.321       .  A
C1977      H1986   1.082       .  S
C1977      C1978   1.405       .  A
C1978      C2681   1.363       .  A
O1979      C2680   1.331   1_565  A
C1980      C1981   1.392       .  A
C1980      O2679   1.331       .  A
C1981      H1987   1.082       .  S
C1981      C2678   1.364       .  A
O1982      C1983   1.332       .  A
C1983      C1984   1.393       .  A
C1984      H1988   1.083   1_545  S
C1989      C1994   1.381       .  A
C1989      C1990   1.403       .  A
C1989      O1995   1.319       .  A
C1990      H2001   1.082       .  S
C1990      C1991   1.403       .  A
C1991      C2000   1.362       .  A
C1991      C1992   1.381       .  A
C1992      C1993   1.403       .  A
C1992      O1998   1.319       .  A
C1993      H2002   1.082       .  S
C1993      C1994   1.402       .  A
C1994      C1997   1.362       .  A
O1995      C1996   1.330       .  A
C1996      C1997   1.389       .  A
C1997      H2003   1.082       .  S
O1998      C1999   1.331       .  A
C1999      C2000   1.392       .  A
C2000      H2004   1.083       .  S
C2005      C2010   1.380       .  A
C2005      C2006   1.405       .  A
C2005      O2011   1.321       .  A
C2006      H2017   1.082       .  S
C2006      C2007   1.405       .  A
C2007      C2716   1.363       .  A
C2007      C2008   1.381       .  A
C2008      C2009   1.402       .  A
C2008      O2714   1.318   1_545  A
C2009      H2018   1.082   1_545  S
C2009      C2010   1.401       .  A
C2010      C2013   1.359       .  A
O2011      C2012   1.332       .  A
C2012      C2013   1.390       .  A
C2013      H2019   1.082       .  S
O2014      C2708   1.318       .  A
O2014      C2015   1.330       .  A
C2015      C2016   1.391       .  A
C2016      H2020   1.082       .  S
C2016      C2707   1.363       .  A
C2021      C2026   1.381       .  A
C2021      C2022   1.402       .  A
C2021      O2027   1.318       .  A
C2022      H2033   1.082       .  S
C2022      C2023   1.401       .  A
C2023      C2032   1.359       .  A
C2023      C2024   1.381       .  A
C2024      C2025   1.403       .  A
C2024      O2030   1.320       .  A
C2025      H2034   1.082       .  S
C2025      C2026   1.403       .  A
C2026      C2029   1.361       .  A
O2027      C2028   1.330       .  A
C2028      C2029   1.390       .  A
C2029      H2035   1.082       .  S
O2030      C2031   1.331       .  A
C2031      C2032   1.391       .  A
C2032      H2036   1.083       .  S
C2037      C2042   1.380       .  A
C2037      C2038   1.405       .  A
C2037      O2043   1.321       .  A
C2038      H2049   1.082       .  S
C2038      C2039   1.405       .  A
C2039      C2048   1.362       .  A
C2039      C2040   1.380       .  A
C2040      C2041   1.406       .  A
C2040      O2046   1.322       .  A
C2041      C2042   1.405       .  A
O2043      C2044   1.332       .  A
C2045      H2051   1.082       .  S
O2046      C2047   1.332       .  A
C2047      C2048   1.393       .  A
C2048      H2052   1.083       .  S
C2053      C2058   1.380       .  A
C2053      C2054   1.404       .  A
C2053      O2059   1.319       .  A
C2054      H2065   1.082       .  S
C2054      C2055   1.403       .  A
C2055      C2064   1.362       .  A
C2055      C2056   1.380       .  A
C2056      C2057   1.406       .  A
C2056      O2062   1.322       .  A
C2057      H2066   1.082       .  S
C2057      C2058   1.406       .  A
C2058      C2061   1.366       .  A
O2059      C2060   1.331       .  A
C2060      C2061   1.393       .  A
C2061      H2067   1.082       .  S
O2062      C2063   1.332       .  A
C2063      C2064   1.393       .  A
C2064      H2068   1.083       .  S
C2069      C2074   1.380       .  A
C2069      C2070   1.403       .  A
C2069      O2075   1.320       .  A
C2070      H2081   1.082       .  S
C2070      C2071   1.404       .  A
C2071      C2080   1.361       .  A
C2071      C2072   1.381       .  A
C2072      C2073   1.402       .  A
C2072      O2078   1.318       .  A
C2073      H2082   1.082       .  S
C2073      C2074   1.401       .  A
C2074      C2077   1.359       .  A
O2075      C2076   1.332       .  A
C2076      C2077   1.390       .  A
C2077      H2083   1.082       .  S
O2078      C2079   1.330       .  A
C2079      C2080   1.391       .  A
C2080      H2084   1.082       .  S
C2085      C2090   1.380       .  A
C2085      O2091   1.319       .  A
C2086      H2097   1.082       .  S
C2086      C2087   1.403       .  A
C2087      C2096   1.363       .  A
C2088      C2089   1.405       .  A
C2088      O2094   1.320       .  A
C2089      H2098   1.082       .  S
C2089      C2090   1.404       .  A
C2090      C2093   1.363       .  A
O2091      C2092   1.331       .  A
C2092      C2093   1.393       .  A
C2093      H2099   1.083       .  S
C2095      C2096   1.390       .  A
C2096      H2100   1.082       .  S
C2101      N2102   1.360       .  A
C2101      N2106   1.361       .  A
C2101      C2792   1.473       .  S
N2102      C2103   1.357       .  A
C2103      N2104   1.357       .  A
C2103      C2232   1.464       .  S
N2104      C2105   1.357       .  A
C2105      N2106   1.359       .  A
C2105      C2125   1.467       .  S
C2107      N2108   1.358       .  A
C2107      N2112   1.359       .  A
C2107      C2776   1.471       .  S
N2108      C2109   1.356       .  A
C2109      N2110   1.357       .  A
C2109      C2175   1.464       .  S
N2110      C2111   1.358       .  A
C2111      N2112   1.360       .  A
C2111      C2210   1.467       .  S
C2113      N2114   1.360       .  A
C2113      N2118   1.357       .  A
C2113      C2763   1.476       .  S
N2114      C2115   1.362       .  A
C2115      N2116   1.361       .  A
C2115      C2202   1.474       .  S
N2116      C2117   1.360       .  A
C2117      N2118   1.356       .  A
C2117      C2145   1.467       .  S
C2119      N2120   1.360       .  A
C2119      N2124   1.362       .  A
C2119      C2747   1.478       .  S
N2120      C2121   1.358       .  A
C2121      N2122   1.360       .  A
C2121      C2217   1.471       .  S
N2122      C2123   1.360       .  A
C2123      N2124   1.362       .  A
N2126      N2143   1.323       .  A
N2126      N2148   1.320       .  A
N2126     Co2163   2.082       .  S
C2127      H2172   1.082       .  S
H2128      C2169   1.082       .  S
C2129      N2153   1.344       .  A
C2129      H2158   1.082       .  S
Co2130     N2148   2.091       .  S
Co2130     N2138   2.089       .  S
Co2130     N2170   2.083       .  S
Co2130     N2146   2.090       .  S
Co2130    Cl2174   2.474       .  S
N2131      N2138   1.322   1_545  A
N2131     Co2132   2.084       .  S
Co2132     N2135   2.091       .  S
Co2132     N2152   2.083       .  S
Co2132     N2139   2.092       .  S
Co2132    Cl2174   2.430   1_545  S
C2133      N2171   1.350       .  A
N2134      N2141   1.321       .  A
N2134      N2164   1.325       .  A
N2134     Co2167   2.084       .  S
N2135      N2153   1.320   1_545  A
N2136      C2165   1.351   1_565  A
N2136      N2146   1.327       .  A
H2137      C2162   1.081       .  S
N2138      N2159   1.327       .  A
N2139      N2157   1.320   1_545  A
C2140      C2168   1.456   1_545  S
N2141      C2156   1.340       .  A
N2141     Co2163   2.086       .  S
C2142      N2170   1.339       .  A
C2142      C2145   1.458       .  S
C2142      H2176   1.082       .  S
C2145      N2166   1.349       .  A
N2146      N2152   1.320   1_565  A
N2147      C2173   1.336       .  A
N2147      N2149   1.320       .  A
N2147     Co2163   2.075       .  S
N2148      C2162   1.344       .  A
N2149      N2177   1.327       .  A
N2149     Co2167   2.085       .  S
H2150      C2173   1.082       .  S
H2151      C2168   1.082       .  S
N2153     Co2167   2.090       .  S
N2154      N2166   1.326       .  A
N2154      N2170   1.321       .  A
N2154     Co2163   2.090       .  S
C2155      C2169   1.455       .  S
C2156      H2160   1.082       .  S
N2157      C2168   1.340       .  A
N2157     Co2167   2.078       .  S
C2161      N2177   1.350       .  A
C2161      C2173   1.453       .  S
C2161      C2182   1.461       .  S
Co2163    Cl2174   2.431       .  S
Co2167    Cl2174   2.473       .  S
C2178      N2179   1.361       .  A
C2178      N2183   1.361       .  A
C2178      C2731   1.470       .  S
N2179      C2180   1.359       .  A
C2180      N2181   1.353       .  A
C2180      C2252   1.461       .  S
N2181      C2182   1.353       .  A
C2182      N2183   1.356       .  A
C2184      N2185   1.362       .  A
C2184      N2189   1.360       .  A
C2184      C2712   1.471       .  S
N2185      C2186   1.358       .  A
C2186      N2187   1.354       .  A
N2187      C2188   1.354       .  A
C2188      N2189   1.359       .  A
C2188      C2242   1.463       .  S
C2190      N2191   1.359       .  A
C2190      N2195   1.361       .  A
C2190      C2699   1.473       .  S
N2191      C2192   1.358       .  A
C2192      N2193   1.356       .  A
C2192      C2222   1.464       .  S
N2193      C2194   1.356       .  A
C2194      N2195   1.359       .  A
C2196      N2197   1.361       .  A
C2196      N2201   1.359       .  A
C2196      C2683   1.476       .  S
N2197      C2198   1.362       .  A
C2198      N2199   1.358       .  A
C2198      C2238   1.469       .  S
N2199      C2200   1.356       .  A
C2200      N2201   1.358       .  A
C2202      N2220   1.352       .  A
C2202      C2239   1.459       .  S
N2203      N2220   1.327       .  A
N2203      N2225   1.321       .  A
N2203     Co2240   2.102       .  S
C2204      N2229   1.338       .  A
C2204      C2242   1.456       .  S
C2204      H2249   1.082       .  S
H2205      C2246   1.082       .  S
C2206      N2230   1.341       .  A
C2206      C2210   1.457       .  S
C2206      H2235   1.082       .  S
Co2207     N2225   2.085       .  S
Co2207     N2215   2.088       .  S
Co2207     N2247   2.081       .  S
Co2207     N2223   2.079       .  S
Co2207    Cl2251   2.473       .  S
N2208      C2246   1.338       .  A
N2208      N2215   1.320       .  A
N2208     Co2209   2.077       .  S
Co2209     N2212   2.091       .  S
Co2209     N2229   2.085       .  S
Co2209     N2216   2.087       .  S
Co2209    Cl2251   2.430       .  S
C2210      N2248   1.350       .  A
N2211      N2218   1.321       .  A
N2211      N2241   1.326       .  A
N2211     Co2244   2.082       .  S
N2212      N2230   1.320       .  A
N2212      N2248   1.325       .  A
N2213      C2242   1.348       .  A
N2213      N2223   1.325       .  A
H2214      C2239   1.082       .  S
N2215      N2236   1.327       .  A
N2216      N2234   1.320       .  A
N2216      N2221   1.325       .  A
C2217      N2221   1.349       .  A
C2217      C2245   1.462       .  S
N2218      C2233   1.338       .  A
N2218     Co2240   2.081       .  S
C2219      N2247   1.341       .  A
C2219      C2222   1.457       .  S
C2219      H2253   1.082       .  S
C2222      N2243   1.349       .  A
N2223      N2229   1.321       .  A
N2224      C2250   1.341       .  A
N2224      N2226   1.322       .  A
N2224     Co2240   2.095       .  S
N2225      C2239   1.342       .  A
N2226      N2254   1.326       .  A
N2226     Co2244   2.083       .  S
H2227      C2250   1.082       .  S
H2228      C2245   1.082       .  S
N2230     Co2244   2.081       .  S
N2231      N2243   1.324       .  A
N2231      N2247   1.320       .  A
N2231     Co2240   2.087       .  S
C2232      N2236   1.351       .  A
C2232      C2246   1.453       .  S
C2233      C2252   1.456       .  S
C2233      H2237   1.082       .  S
N2234      C2245   1.343       .  A
N2234     Co2244   2.089       .  S
C2238      N2254   1.349       .  A
C2238      C2250   1.459       .  S
Co2240    Cl2251   2.434       .  S
N2241      C2252   1.348       .  A
Co2244    Cl2251   2.472       .  S
N2255      C2260   1.355       .  A
N2255      C2259   1.353       .  A
N2255      H2287   1.032       .  S
N2256      C2263   1.352       .  A
N2256      C2264   1.353       .  A
N2257      C2262   1.354       .  A
N2257      C2261   1.355       .  A
N2257      H2288   1.031       .  S
N2258      C2265   1.353       .  A
N2258      C2266   1.352       .  A
C2259      C2267   1.389       .  A
C2259      C2275   1.421       .  A
C2260      C2276   1.422       .  A
C2260      C2268   1.388       .  A
C2261      C2269   1.387       .  A
C2261      C2278   1.417       .  A
C2262      C2277   1.418       .  A
C2262      C2270   1.388       .  A
C2263      C2275   1.418       .  A
C2263      C2271   1.388       .  A
C2264      C2278   1.416       .  A
C2264      C2272   1.385       .  A
C2265      C2273   1.387   1_565  A
C2265      C2276   1.419       .  A
C2266      C2274   1.385   1_565  A
C2266      C2277   1.415       .  A
C2267      H2279   1.082       .  S
C2267      C2268   1.375       .  A
C2268      H2280   1.082       .  S
C2269      H2281   1.082       .  S
C2269      C2270   1.371       .  A
C2270      H2282   1.082       .  S
C2271      H2283   1.082       .  S
C2271      C2272   1.377       .  A
C2272      H2284   1.082       .  S
C2273      C2274   1.378       .  A
C2275      C2664   1.481       .  S
C2276      C2651   1.487   1_565  S
C2277      C2715   1.481   1_565  S
C2278      C2760   1.485       .  S
N2289      C2294   1.355       .  A
N2289      C2293   1.353       .  A
N2289      H2321   1.032       .  S
N2290      C2297   1.351       .  A
N2290      C2298   1.353       .  A
N2291      C2296   1.353       .  A
N2291      C2295   1.354       .  A
N2291      H2322   1.034   1_556  S
N2292      C2299   1.354       .  A
N2292      C2300   1.354       .  A
C2293      C2301   1.389       .  A
C2293      C2309   1.421       .  A
C2294      C2310   1.421       .  A
C2294      C2302   1.388       .  A
C2295      C2303   1.388       .  A
C2295      C2312   1.417       .  A
C2296      C2311   1.418       .  A
C2296      C2304   1.389       .  A
C2297      C2309   1.417       .  A
C2297      C2305   1.388       .  A
C2298      C2312   1.414   1_554  A
C2298      C2306   1.385       .  A
C2299      C2310   1.420       .  A
C2300      C2311   1.417   1_554  A
C2301      H2313   1.082       .  S
C2301      C2302   1.374       .  A
C2302      H2314   1.082       .  S
C2303      H2315   1.082       .  S
C2303      C2304   1.370       .  A
C2304      H2316   1.082       .  S
C2305      H2317   1.082       .  S
C2305      C2306   1.376       .  A
C2306      H2318   1.082       .  S
C2307      H2319   1.082       .  S
C2307      C2308   1.377       .  A
C2308      H2320   1.082       .  S
C2309      C2728   1.479       .  S
C2312      C2616   1.482       .  S
N2323      C2328   1.354       .  A
N2323      C2327   1.354       .  A
N2323      H2355   1.033       .  S
N2324      C2331   1.350       .  A
N2324      C2332   1.352       .  A
N2325      C2330   1.352       .  A
N2325      C2329   1.354       .  A
N2325      H2356   1.035       .  S
N2326      C2333   1.352       .  A
N2326      C2334   1.352       .  A
C2327      C2335   1.389       .  A
C2327      C2343   1.420       .  A
C2328      C2344   1.418       .  A
C2328      C2336   1.387       .  A
C2329      C2337   1.387       .  A
C2329      C2346   1.415       .  A
C2330      C2345   1.415       .  A
C2330      C2338   1.388       .  A
C2331      C2343   1.414       .  A
C2331      C2339   1.387       .  A
C2332      C2346   1.412       .  A
C2332      C2340   1.385       .  A
C2333      C2344   1.415       .  A
C2334      C2345   1.413       .  A
C2335      H2347   1.082       .  S
C2335      C2336   1.374       .  A
C2336      H2348   1.082       .  S
C2337      H2349   1.082       .  S
C2337      C2338   1.370       .  A
C2338      H2350   1.082       .  S
C2339      H2351   1.082       .  S
C2339      C2340   1.376       .  A
C2340      H2352   1.082       .  S
C2341      H2353   1.082       .  S
C2341      C2342   1.377       .  A
C2342      H2354   1.082       .  S
C2343      C2696   1.479       .  S
C2344      C2795   1.482       .  S
C2345      C2603   1.478       .  S
C2346      C2584   1.481       .  S
N2357      C2362   1.355       .  A
N2357      C2361   1.356       .  A
N2357      H2389   1.032       .  S
N2358      C2365   1.351   1_554  A
N2358      C2366   1.351       .  A
N2359      C2364   1.354       .  A
N2359      C2363   1.352       .  A
N2359      H2390   1.035       .  S
N2360      C2367   1.350       .  A
N2360      C2368   1.351       .  A
C2361      C2369   1.389       .  A
C2361      C2377   1.423       .  A
C2362      C2378   1.421       .  A
C2362      C2370   1.387       .  A
C2363      C2371   1.389       .  A
C2363      C2380   1.417       .  A
C2364      C2379   1.416       .  A
C2364      C2372   1.387       .  A
C2365      C2377   1.416       .  A
C2365      C2373   1.388   1_556  A
C2366      C2380   1.412       .  A
C2366      C2374   1.385       .  A
C2367      C2378   1.414   1_554  A
C2368      C2379   1.412       .  A
C2369      H2381   1.081       .  S
C2369      C2370   1.373       .  A
C2370      H2382   1.082       .  S
C2371      H2383   1.081       .  S
C2371      C2372   1.370       .  A
C2372      H2384   1.082       .  S
C2373      H2385   1.082   1_554  S
C2373      C2374   1.377       .  A
C2374      H2386   1.082       .  S
C2375      H2387   1.082   1_554  S
C2375      C2376   1.377       .  A
C2376      H2388   1.082       .  S
C2377      C2568   1.484       .  S
C2378      C2552   1.480   1_565  S
C2379      C2680   1.481   1_565  S
C2380      C2779   1.478       .  S
C2391      N2392   1.363       .  A
C2391      N2396   1.360       .  A
C2391      C2571   1.474       .  S
N2392      C2393   1.360       .  A
C2393      N2394   1.357       .  A
C2393      C2427   1.467       .  S
N2394      C2395   1.356       .  A
C2395      N2396   1.358       .  A
C2397      N2398   1.362       .  A
C2397      N2402   1.363       .  A
C2397      C2632   1.477       .  S
N2398      C2399   1.358       .  A
C2399      N2400   1.353       .  A
C2399      C2532   1.465       .  S
N2400      C2401   1.354       .  A
C2401      N2402   1.362       .  A
C2401      C2457   1.467       .  S
C2403      N2404   1.361       .  A
C2403      N2408   1.360       .  A
C2403      C2555   1.473       .  S
N2404      C2405   1.358       .  A
C2405      N2406   1.356       .  A
C2405      C2467   1.469       .  S
N2406      C2407   1.357       .  A
C2407      N2408   1.359       .  A
C2407      C2512   1.466       .  S
C2409      N2410   1.359       .  A
C2409      N2414   1.359       .  A
C2409      C2619   1.476       .  S
N2410      C2411   1.359       .  A
C2411      N2412   1.360       .  A
C2411      C2447   1.472       .  S
N2412      C2413   1.361       .  A
C2413      N2414   1.360       .  A
C2413      C2492   1.472       .  S
C2415      N2416   1.361       .  A
C2415      N2420   1.358       .  A
C2415      C2587   1.473       .  S
N2416      C2417   1.360       .  A
C2417      N2418   1.358       .  A
C2417      C2442   1.469       .  S
N2418      C2419   1.357       .  A
C2419      N2420   1.357       .  A
C2419      C2528   1.465       .  S
C2421      N2422   1.360       .  A
C2421      N2426   1.362       .  A
C2421      C2648   1.477       .  S
N2422      C2423   1.359       .  A
C2423      N2424   1.360       .  A
C2423      C2435   1.471       .  S
N2424      C2425   1.360       .  A
C2425      N2426   1.360       .  A
C2425      C2507   1.473       .  S
C2427      N2445   1.347       .  A
C2427      C2464   1.462       .  S
N2428      N2445   1.323       .  A
N2428      N2450   1.320       .  A
N2428     Co2465   2.079       .  S
C2429      N2454   1.341       .  A
C2429      C2467   1.457       .  S
C2429      H2474   1.082       .  S
H2430      C2471   1.082       .  S
C2431      N2455   1.343       .  A
C2431      C2435   1.461       .  S
C2431      H2460   1.082       .  S
Co2432     N2450   2.093       .  S
Co2432     N2440   2.082       .  S
Co2432     N2472   2.081       .  S
Co2432     N2448   2.090       .  S
Co2432    Cl2476   2.472       .  S
N2433      C2471   1.338       .  A
N2433      N2440   1.322       .  A
N2433     Co2434   2.089       .  S
Co2434     N2437   2.091       .  S
Co2434     N2454   2.086       .  S
Co2434     N2441   2.093       .  S
Co2434    Cl2476   2.432       .  S
C2435      N2473   1.349       .  A
N2436      N2443   1.322       .  A
N2436      N2466   1.327       .  A
N2436     Co2469   2.089       .  S
N2437      N2455   1.321       .  A
N2437      N2473   1.326       .  A
N2438      C2467   1.350       .  A
N2438      N2448   1.326       .  A
H2439      C2464   1.081       .  S
N2440      N2461   1.327       .  A
N2441      N2459   1.321       .  A
N2441      N2446   1.325       .  A
C2442      N2446   1.350       .  A
C2442      C2470   1.459       .  S
N2443      C2458   1.341       .  A
N2443     Co2465   2.092       .  S
C2444      N2472   1.340       .  A
C2444      C2447   1.458       .  S
C2444      H2478   1.082       .  S
C2447      N2468   1.352       .  A
N2448      N2454   1.321       .  A
N2449      C2475   1.335       .  A
N2449      N2451   1.320       .  A
N2449     Co2465   2.070       .  S
N2450      C2464   1.345       .  A
N2451      N2479   1.326       .  A
N2451     Co2469   2.084       .  S
H2452      C2475   1.082       .  S
H2453      C2470   1.082       .  S
N2455     Co2469   2.089       .  S
N2456      N2468   1.328       .  A
N2456      N2472   1.321       .  A
N2456     Co2465   2.099       .  S
C2457      N2461   1.349       .  A
C2457      C2471   1.458       .  S
C2458      C2477   1.458       .  S
C2458      H2462   1.082       .  S
N2459      C2470   1.343       .  A
N2459     Co2469   2.085       .  S
C2463      N2479   1.350       .  A
C2463      C2475   1.451       .  S
C2463      C2490   1.459       .  S
Co2465    Cl2476   2.433       .  S
N2466      C2477   1.351       .  A
Co2469    Cl2476   2.475       .  S
C2477      C2484   1.469       .  S
C2480      N2481   1.361       .  A
C2480      N2485   1.360       .  A
C2480      C2600   1.474       .  S
N2481      C2482   1.359       .  A
C2482      N2483   1.358       .  A
C2482      C2500   1.469   1_655  S
N2483      C2484   1.358       .  A
C2484      N2485   1.359       .  A
C2486      N2487   1.360       .  A
C2486      N2491   1.361       .  A
C2486      C2667   1.470       .  S
N2487      C2488   1.357       .  A
C2488      N2489   1.353       .  A
C2488      C2542   1.462       .  S
N2489      C2490   1.354       .  A
C2490      N2491   1.357       .  A
C2492      N2510   1.350       .  A
C2492      C2529   1.460       .  S
N2493      N2510   1.326       .  A
N2493      N2515   1.322       .  A
N2493     Co2530   2.094       .  S
C2494      C2532   1.457       .  S
C2494      H2539   1.082       .  S
H2495      C2536   1.082       .  S
C2496      N2520   1.342       .  A
C2496      H2525   1.082       .  S
Co2497     N2515   2.092       .  S
Co2497     N2505   2.090       .  S
Co2497     N2537   2.085       .  S
Co2497     N2513   2.087       .  S
Co2497    Cl2541   2.473       .  S
N2498      N2505   1.321       .  A
Co2499     N2519   2.090       .  S
Co2499     N2506   2.091       .  S
C2500      N2538   1.351   1_455  A
N2501      N2508   1.320       .  A
N2501      N2531   1.326       .  A
N2501     Co2534   2.084       .  S
N2502      N2520   1.320       .  A
H2504      C2529   1.082       .  S
N2505      N2526   1.327       .  A
C2507      N2511   1.350       .  A
N2508      C2523   1.338       .  A
N2508     Co2530   2.078       .  S
C2509      C2512   1.460       .  S
C2509      H2543   1.082       .  S
C2512      N2533   1.348       .  A
N2514      N2516   1.321       .  A
N2514     Co2530   2.092       .  S
N2515      C2529   1.342       .  A
N2516     Co2534   2.079       .  S
H2517      C2540   1.082       .  S
H2518      C2535   1.082       .  S
N2520     Co2534   2.080       .  S
N2521      N2537   1.320       .  A
N2521     Co2530   2.079       .  S
C2522      N2526   1.351       .  A
C2523      C2542   1.456       .  S
C2523      H2527   1.082       .  S
N2524     Co2534   2.090       .  S
C2528      N2544   1.348       .  A
C2528      C2540   1.459       .  S
Co2530    Cl2541   2.435       .  S
N2531      C2542   1.349       .  A
Co2534    Cl2541   2.471       .  S
C2545      C2550   1.381       .  A
C2545      C2546   1.404       .  A
C2545      O2551   1.319       .  A
C2546      H2557   1.082       .  S
C2546      C2547   1.403       .  A
C2547      C2556   1.362       .  A
C2547      C2548   1.381       .  A
C2548      C2549   1.403       .  A
C2548      O2554   1.319       .  A
C2549      C2550   1.402       .  A
C2552      C2553   1.389       .  A
C2553      H2559   1.082   1_545  S
O2554      C2555   1.331       .  A
C2555      C2556   1.392       .  A
C2556      H2560   1.083       .  S
C2561      C2566   1.381       .  A
C2561      C2562   1.404       .  A
C2561      O2567   1.320       .  A
C2562      H2573   1.082       .  S
C2562      C2563   1.404       .  A
C2563      C2572   1.364       .  A
C2563      C2564   1.380       .  A
C2564      C2565   1.404       .  A
C2564      O2570   1.319       .  A
C2565      H2574   1.082       .  S
C2565      C2566   1.403       .  A
C2566      C2569   1.362       .  A
O2567      C2568   1.331       .  A
C2568      C2569   1.391       .  A
C2569      H2575   1.082       .  S
O2570      C2571   1.332       .  A
C2571      C2572   1.392       .  A
C2572      H2576   1.082       .  S
C2577      C2582   1.380       .  A
C2577      C2578   1.406       .  A
C2577      O2583   1.320       .  A
C2578      H2589   1.082       .  S
C2578      C2579   1.405       .  A
C2579      C2588   1.363       .  A
C2579      C2580   1.380       .  A
C2580      C2581   1.402       .  A
C2580      O2586   1.319       .  A
C2581      H2590   1.082       .  S
C2581      C2582   1.402       .  A
C2582      C2585   1.360       .  A
O2583      C2584   1.332       .  A
C2584      C2585   1.389       .  A
C2585      H2591   1.082       .  S
O2586      C2587   1.330       .  A
C2587      C2588   1.394       .  A
C2588      H2592   1.083       .  S
C2593      C2598   1.380       .  A
C2593      C2594   1.406       .  A
C2593      O2599   1.321       .  A
C2594      H2605   1.082       .  S
C2594      C2595   1.405       .  A
C2595      C2604   1.365       .  A
C2595      C2596   1.380       .  A
C2596      C2597   1.402   1_655  A
C2597      C2598   1.401   1_455  A
C2598      C2601   1.361       .  A
O2599      C2600   1.333       .  A
C2600      C2601   1.391       .  A
C2601      H2607   1.083   1_655  S
O2602      C2603   1.330       .  A
C2604      H2608   1.082       .  S
C2609      C2614   1.380       .  A
C2609      C2610   1.404       .  A
C2609      O2615   1.318       .  A
C2610      H2621   1.082       .  S
C2610      C2611   1.403       .  A
C2611      C2620   1.362       .  A
C2611      C2612   1.380       .  A
C2612      C2613   1.406       .  A
C2612      O2618   1.321       .  A
C2613      H2622   1.082       .  S
C2613      C2614   1.405       .  A
C2614      C2617   1.365       .  A
O2615      C2616   1.331       .  A
C2616      C2617   1.392       .  A
C2617      H2623   1.082       .  S
O2618      C2619   1.333       .  A
C2619      C2620   1.392       .  A
C2620      H2624   1.083       .  S
C2625      C2630   1.380       .  A
C2625      C2626   1.406       .  A
C2625      O2631   1.322       .  A
C2626      H2637   1.082       .  S
C2626      C2627   1.406       .  A
C2627      C2636   1.364       .  A
C2627      C2628   1.380   1_655  A
C2628      C2629   1.404       .  A
C2629      C2630   1.403   1_455  A
C2630      C2633   1.362       .  A
O2631      C2632   1.332       .  A
C2632      C2633   1.392       .  A
C2633      H2639   1.083   1_655  S
C2635      C2636   1.392   1_455  A
C2636      H2640   1.082       .  S
C2641      C2646   1.380       .  A
C2641      C2642   1.405       .  A
C2641      O2647   1.321       .  A
C2642      H2653   1.082       .  S
C2642      C2643   1.405       .  A
C2643      C2652   1.363       .  A
C2644      C2645   1.405       .  A
C2644      O2650   1.321   1_545  A
C2645      H2654   1.082   1_545  S
C2646      C2649   1.364       .  A
O2647      C2648   1.333       .  A
C2648      C2649   1.393       .  A
C2649      H2655   1.082       .  S
O2650      C2651   1.332   1_565  A
C2652      H2656   1.082       .  S
C2657      C2662   1.381       .  A
C2657      C2658   1.403       .  A
C2657      O2663   1.319       .  A
C2658      H2669   1.082       .  S
C2658      C2659   1.402       .  A
C2659      C2668   1.361       .  A
C2659      C2660   1.380       .  A
C2660      C2661   1.404       .  A
C2660      O2666   1.319       .  A
C2661      H2670   1.082       .  S
C2661      C2662   1.403       .  A
C2662      C2665   1.363       .  A
O2663      C2664   1.330       .  A
C2664      C2665   1.391       .  A
C2665      H2671   1.082       .  S
O2666      C2667   1.331       .  A
C2667      C2668   1.391       .  A
C2668      H2672   1.083       .  S
C2673      C2678   1.380       .  A
C2673      C2674   1.404       .  A
C2673      O2679   1.319       .  A
C2674      H2685   1.082       .  S
C2674      C2675   1.404       .  A
C2675      C2684   1.362       .  A
C2675      C2676   1.380       .  A
C2676      C2677   1.405       .  A
C2676      O2682   1.321       .  A
C2677      H2686   1.082       .  S
C2677      C2678   1.405       .  A
C2680      C2681   1.392       .  A
C2681      H2687   1.082       .  S
O2682      C2683   1.332       .  A
C2683      C2684   1.393       .  A
C2684      H2688   1.083       .  S
C2689      C2694   1.381       .  A
C2689      C2690   1.402       .  A
C2689      O2695   1.318       .  A
C2690      H2701   1.082       .  S
C2690      C2691   1.402       .  A
C2691      C2700   1.361       .  A
C2691      C2692   1.381       .  A
C2692      C2693   1.404       .  A
C2692      O2698   1.319       .  A
C2693      H2702   1.082       .  S
C2693      C2694   1.403       .  A
C2694      C2697   1.362       .  A
O2695      C2696   1.330       .  A
C2696      C2697   1.390       .  A
C2697      H2703   1.082       .  S
O2698      C2699   1.332       .  A
C2699      C2700   1.391       .  A
C2700      H2704   1.083       .  S
C2705      C2710   1.380       .  A
C2705      C2706   1.404       .  A
C2705      O2711   1.320       .  A
C2706      H2717   1.082       .  S
C2706      C2707   1.404       .  A
C2707      C2708   1.381       .  A
C2708      C2709   1.402       .  A
C2709      H2718   1.082       .  S
C2709      C2710   1.401       .  A
C2710      C2713   1.360       .  A
O2711      C2712   1.331       .  A
C2712      C2713   1.390       .  A
C2713      H2719   1.082       .  S
O2714      C2715   1.330   1_565  A
C2715      C2716   1.392       .  A
C2716      H2720   1.082       .  S
C2721      C2726   1.381       .  A
C2721      C2722   1.401       .  A
C2721      O2727   1.318       .  A
C2722      H2733   1.082       .  S
C2722      C2723   1.401       .  A
C2723      C2732   1.359       .  A
C2723      C2724   1.380       .  A
C2724      C2725   1.404       .  A
C2724      O2730   1.320       .  A
C2725      H2734   1.082       .  S
C2725      C2726   1.403       .  A
C2726      C2729   1.362       .  A
O2727      C2728   1.330       .  A
C2728      C2729   1.390       .  A
C2729      H2735   1.082       .  S
O2730      C2731   1.331       .  A
C2731      C2732   1.391       .  A
C2732      H2736   1.083       .  S
C2737      C2742   1.380       .  A
C2737      C2738   1.405       .  A
C2737      O2743   1.321       .  A
C2738      H2749   1.082       .  S
C2738      C2739   1.405       .  A
C2739      C2748   1.363       .  A
C2739      C2740   1.380       .  A
C2740      C2741   1.406       .  A
C2740      O2746   1.322       .  A
C2741      C2742   1.405       .  A
O2743      C2744   1.332       .  A
C2745      H2751   1.082       .  S
O2746      C2747   1.332       .  A
C2747      C2748   1.394       .  A
C2748      H2752   1.083       .  S
C2753      C2758   1.380       .  A
C2753      C2754   1.404       .  A
C2753      O2759   1.319       .  A
C2754      H2765   1.082       .  S
C2754      C2755   1.403       .  A
C2755      C2764   1.362       .  A
C2755      C2756   1.380       .  A
C2756      C2757   1.406       .  A
C2756      O2762   1.322       .  A
C2757      H2766   1.082       .  S
C2757      C2758   1.406       .  A
C2758      C2761   1.366       .  A
O2759      C2760   1.332       .  A
C2760      C2761   1.392       .  A
C2761      H2767   1.082       .  S
O2762      C2763   1.332       .  A
C2763      C2764   1.393       .  A
C2764      H2768   1.083       .  S
C2769      C2774   1.380       .  A
C2769      C2770   1.403       .  A
C2769      O2775   1.320       .  A
C2770      H2781   1.082       .  S
C2770      C2771   1.403       .  A
C2771      C2780   1.360       .  A
C2771      C2772   1.381       .  A
C2772      C2773   1.402       .  A
C2772      O2778   1.319       .  A
C2773      H2782   1.082       .  S
C2773      C2774   1.402       .  A
C2774      C2777   1.360       .  A
O2775      C2776   1.331       .  A
C2776      C2777   1.391       .  A
C2777      H2783   1.083       .  S
O2778      C2779   1.330       .  A
C2779      C2780   1.390       .  A
C2780      H2784   1.083       .  S
C2785      C2790   1.380       .  A
C2785      O2791   1.319       .  A
C2786      H2797   1.082       .  S
C2786      C2787   1.403       .  A
C2787      C2796   1.362       .  A
C2788      C2789   1.405       .  A
C2788      O2794   1.320       .  A
C2789      H2798   1.082       .  S
C2789      C2790   1.404       .  A
C2790      C2793   1.363       .  A
O2791      C2792   1.331       .  A
C2792      C2793   1.393       .  A
C2793      H2799   1.083       .  S
C2795      C2796   1.390       .  A
C2796      H2800   1.082       .  S
