geometry optimzed in LAMMPS
_audit_creation_date              2020-12-01 
_audit_creation_method            'lammps2cif' 
_symmetry_space_group_name_H-M    'P1' 
_symmetry_Int_Tables_number       1 
_symmetry_cell_setting            triclinic 
loop_ 
_symmetry_equiv_pos_as_xyz 
  x,y,z 
_cell_length_a                    54.11691626 
_cell_length_b                    54.13765418503686 
_cell_length_c                    53.971783306340214 
_cell_angle_alpha                 90.03315749393573 
_cell_angle_beta                  89.9612374185269 
_cell_angle_gamma                 89.76432223799232 
loop_ 
_atom_site_label 
_atom_site_type_symbol 
_atom_site_fract_x 
_atom_site_fract_y 
_atom_site_fract_z 
_atom_site_charge 
C1          C  0.05549628  0.73102227  0.96270002     0.81000
N2          N  0.05169943  0.73303845  0.93813055    -0.77300
C3          C  0.03880840  0.71600084  0.92542998     0.83500
N4          N  0.02953711  0.69604799  0.93751132    -0.77200
C5          C  0.03294013  0.69379578  0.96249612     0.83600
N6          N  0.04589063  0.71141237  0.97517143    -0.79000
C7          C  0.90418555  0.72266814  0.95711624     0.81000
N8          N  0.91638403  0.70473974  0.96983655    -0.77300
C9          C  0.93237760  0.68936300  0.95786274     0.83500
N10         N  0.93619678  0.69200613  0.93297206    -0.77200
C11         C  0.92442186  0.71043215  0.92040172     0.83600
N12         N  0.90843152  0.72543838  0.93259351    -0.79000
C13         C  0.91694804  0.70605673  0.10997266     0.81000
N14         N  0.89232172  0.70745915  0.10600318    -0.77300
C15         C  0.88159499  0.69495815  0.08718635     0.83500
N16         N  0.89571725  0.68020651  0.07238797    -0.77200
C17         C  0.92058196  0.67851428  0.07632175     0.83600
N18         N  0.93119890  0.69163220  0.09501901    -0.79000
C19         C  0.04973054  0.69850795  0.11835919     0.81000
N20         N  0.03437859  0.68455921  0.10420203    -0.77300
C21         C  0.03924096  0.68157917  0.07954080     0.83500
N22         N  0.05996188  0.69176319  0.06940561    -0.77200
C23         C  0.07529740  0.70544527  0.08382663     0.83600
N24         N  0.06989072  0.70874524  0.10799256    -0.79000
C25         C  0.93195338  0.47719680  0.08946790     0.81000
N26         N  0.90785382  0.47312248  0.08459035    -0.77300
C27         C  0.89478539  0.48799718  0.06948393     0.83500
N28         N  0.90601434  0.50768399  0.05873000    -0.77200
C29         C  0.93056562  0.51175181  0.06279213     0.83600
N30         N  0.94361014  0.49648148  0.07828809    -0.79000
C31         C  0.89193025  0.49906279  0.94542713     0.81000
N32         N  0.90503300  0.51578042  0.95897120    -0.77300
C33         C  0.92846118  0.52207137  0.95193516     0.83500
N34         N  0.93822894  0.51237756  0.93070726    -0.77200
C35         C  0.92503300  0.49582396  0.91710579     0.83600
N36         N  0.90220782  0.48911533  0.92480849    -0.79000
C37         C  0.08800202  0.51200693  0.94215233     0.81000
N38         N  0.07332031  0.52499734  0.95803984    -0.77300
C39         C  0.04862725  0.52746876  0.95327318     0.83500
N40         N  0.03872867  0.51674754  0.93268592    -0.77200
C41         C  0.05360804  0.50421277  0.91667030     0.83600
N42         N  0.07799788  0.50217913  0.92144771    -0.79000
C43         C  0.04601784  0.49832538  0.11172892     0.81000
N44         N  0.06037620  0.48178802  0.09957186    -0.77300
C45         C  0.06255290  0.48239342  0.07462761     0.83500
N46         N  0.05040374  0.50001716  0.06150511    -0.77200
C47         C  0.03620295  0.51704130  0.07342506     0.83600
N48         N  0.03396135  0.51622481  0.09866348    -0.79000
O49         O  0.02802019  0.65065808  0.96728150    -0.74500
O50         O  0.00877682  0.67676450  0.99453782    -0.53400
C51         C  0.02264998  0.67237050  0.97566585     0.79200
O52         O  0.93636113  0.56357092  0.96248007    -0.59100
O53         O  0.95950100  0.53338632  0.98105591    -0.52100
C54         C  0.94238820  0.54080579  0.96610719     0.71200
O55         O  0.94152590  0.64711741  0.96291426    -0.73700
O56         O  0.95579360  0.67452576  0.99176456    -0.54200
C57         C  0.94418142  0.66909160  0.97165586     0.77200
O58         O  0.03823794  0.56761463  0.96567390    -0.58800
O59         O  0.01635839  0.53555683  0.98221491    -0.51900
C60         C  0.03347158  0.54448902  0.96822563     0.73800
Zr61       Zr  0.02257829  0.60743956  0.98026032     2.54700
O62         O  0.02991252  0.60877058  0.93575224    -0.79400
O63         O  0.06642961  0.61174547  0.98940435    -0.92800
Zr64       Zr  0.94936038  0.60463454  0.97649065     2.64700
O65         O  0.94915214  0.60645573  0.93139343    -0.97700
O66         O  0.90444701  0.60698917  0.97886523    -0.79800
O67         O  0.98488809  0.62974280  0.98049427    -0.83200
O68         O  0.98709772  0.58201786  0.97547380    -2.17900
O69         O  0.02792108  0.55917094  0.06746685    -0.66600
O70         O  0.01307112  0.53160736  0.03907111    -0.51100
C71         C  0.02486918  0.53716569  0.05909927     0.72200
O72         O  0.93003856  0.63802810  0.06386914    -0.59500
O73         O  0.95319069  0.66968783  0.04832649    -0.51400
C74         C  0.93557029  0.66104256  0.06180802     0.74000
O75         O  0.93440034  0.55479118  0.05664219    -0.70900
O76         O  0.96070583  0.52859008  0.03615603    -0.49500
C77         C  0.94266654  0.53306620  0.05107817     0.75400
O78         O  0.03022193  0.64095955  0.06916456    -0.66200
O79         O  0.00911763  0.67163463  0.04908747    -0.53400
C80         C  0.02498702  0.66373483  0.06509344     0.73800
Zr81       Zr  0.01885277  0.60078981  0.05298244     2.77500
O82         O  0.01856756  0.60196470  0.09807817    -0.96900
O83         O  0.06369046  0.59835689  0.04969703    -0.77800
Zr84       Zr  0.94571511  0.59818292  0.04926325     2.70100
O85         O  0.94752317  0.59416286  0.09416060    -0.79000
O86         O  0.90075007  0.59829484  0.04888643    -0.98100
Zr87       Zr  0.98220175  0.65056438  0.01940705     2.21500
Zr88       Zr  0.98653852  0.55480854  0.01045005     2.11100
O89         O  0.98324908  0.57577058  0.04929789    -2.46800
O90         O  0.98121136  0.62343513  0.05409791    -0.78800
O91         O  0.02248298  0.57983273  0.01446408    -0.71000
O92         O  0.94605643  0.62562614  0.01495887    -2.31900
O93         O  0.02035557  0.62830025  0.01879863    -2.28200
O94         O  0.94833617  0.57718515  0.01071306    -0.72700
H95         H  0.98816037  0.57276247  0.96023067     0.79200
H96         H  0.93130369  0.63579265  0.01498316     0.80300
H97         H  0.98255564  0.56426814  0.06292897     0.82600
H98         H  0.03429735  0.63933276  0.02021249     0.80200
H99         H  0.90060546  0.62475175  0.98106053     0.43200
H100        H  0.89616629  0.58406809  0.03834346     0.42200
H101        H  0.95677642  0.60887765  0.09978208     0.41900
H102        H  0.00497555  0.59078084  0.10294478     0.39800
H103        H  0.06990024  0.60926678  0.06301724     0.42900
H104        H  0.07108720  0.62790287  0.98225080     0.37700
H105        H  0.01682848  0.59825418  0.92853808     0.43800
H106        H  0.96259723  0.59515932  0.92613488     0.40200
H107        H  0.03384980  0.59323410  0.10317198     0.45200
H108        H  0.07474299  0.59942504  0.97866271     0.43900
H109        H  0.93374848  0.59802433  0.92636192     0.44000
H110        H  0.89601520  0.59330965  0.06588296     0.44400
C111        C  0.60556258  0.04098113  0.09517207     0.81000
N112        N  0.58948003  0.05437116  0.08120157    -0.77300
C113        C  0.57263089  0.04264485  0.06668682     0.83500
N114        N  0.57200434  0.01743759  0.06620129    -0.77200
C115        C  0.58831257  0.00412661  0.08003507     0.83600
N116        N  0.60477133  0.01603326  0.09452906    -0.79000
C117        C  0.58920505  0.03749463  0.91854603     0.81000
N118        N  0.57374140  0.05244460  0.93162995    -0.77300
C119        C  0.57196826  0.04998351  0.95672646     0.83500
N120        N  0.58551890  0.03223509  0.96862324    -0.77200
C121        C  0.60060703  0.01700023  0.95531442     0.83600
N122        N  0.60219490  0.01981045  0.93047463    -0.79000
C123        C  0.58692492  0.20553203  0.94964949     0.81000
N124        N  0.57086172  0.19268574  0.96416138    -0.77300
C125        C  0.56963624  0.16752752  0.96214714     0.83500
N126        N  0.58425609  0.15548562  0.94535740    -0.77200
C127        C  0.59989002  0.16852884  0.93061351     0.83600
N128        N  0.60098575  0.19331021  0.93294703    -0.79000
C129        C  0.59655569  0.19792730  0.07546193     0.81000
N130        N  0.59910818  0.19426052  0.10017141    -0.77300
C131        C  0.58754124  0.17538397  0.11175352     0.83500
N132        N  0.57260318  0.16025828  0.09850276    -0.77200
C133        C  0.56973825  0.16366709  0.07367321     0.83600
N134        N  0.58189595  0.18246912  0.06204606    -0.79000
C135        C  0.38429061  0.19924425  0.94963176     0.81000
N136        N  0.36906616  0.18629817  0.93459437    -0.77300
C137        C  0.37057853  0.16136229  0.93314933     0.83500
N138        N  0.38773014  0.14911434  0.94692375    -0.77200
C139        C  0.40339915  0.16196971  0.96184683     0.83600
N140        N  0.40163890  0.18706157  0.96319311    -0.79000
C141        C  0.39042938  0.04296400  0.91451818     0.81000
N142        N  0.37449665  0.02666887  0.92467130    -0.77300
C143        C  0.37332138  0.02338429  0.94951101     0.83500
N144        N  0.38876126  0.03647125  0.96450448    -0.77200
C145        C  0.40530571  0.05255179  0.95430484     0.83600
N146        N  0.40595149  0.05584045  0.92931965    -0.79000
C147        C  0.37748222  0.03716261  0.10146732     0.81000
N148        N  0.37582279  0.01274755  0.09652359    -0.77300
C149        C  0.38909775  0.00228338  0.07803207     0.83500
N150        N  0.40496342  0.01643444  0.06460337    -0.77200
C151        C  0.40704731  0.04107401  0.06962613     0.83600
N152        N  0.39306260  0.05146122  0.08791515    -0.79000
C153        C  0.37063461  0.18505018  0.07754699     0.81000
N154        N  0.36842649  0.18174740  0.10230359    -0.77300
C155        C  0.38326143  0.16565831  0.11458674     0.83500
N156        N  0.40088136  0.15288446  0.10191973    -0.77200
C157        C  0.40334254  0.15607710  0.07700211     0.83600
N158        N  0.38808152  0.17206063  0.06480790    -0.79000
O159        O  0.53110236  0.04895235  0.05627215    -0.74500
O160        O  0.55943159  0.07703742  0.04257540    -0.53400
C161        C  0.55328555  0.05707577  0.05408347     0.79200
O162        O  0.44678989  0.06205738  0.96212548    -0.59100
O163        O  0.41735717  0.07684849  0.98873924    -0.52100
C164        C  0.42425252  0.06455588  0.96952341     0.71200
O165        O  0.53046431  0.06084748  0.96285790    -0.73700
O166        O  0.55946788  0.07794244  0.98838745    -0.54200
C167        C  0.55286612  0.06397895  0.97021522     0.77200
O168        O  0.44850074  0.04951046  0.06012649    -0.58800
O169        O  0.41855599  0.07439191  0.04355855    -0.51900
C170        C  0.42581661  0.05595154  0.05683078     0.73800
Zr171      Zr  0.48953745  0.06458318  0.04886365     2.54700
O172        O  0.49024878  0.01965823  0.04606890    -0.79400
O173        O  0.49327725  0.06513065  0.09381749    -0.92800
Zr174      Zr  0.48867791  0.07221722  0.97587223     2.64700
O175        O  0.49004459  0.02734059  0.97304376    -0.97700
O176        O  0.48873633  0.07780075  0.93110188    -0.79800
O177        O  0.51309657  0.06867042  0.01210751    -0.83200
O178        O  0.46507917  0.06713179  0.01252600    -2.17900
O179        O  0.44543016  0.14633988  0.07118294    -0.66600
O180        O  0.41693851  0.13014690  0.04452336    -0.51100
C181        C  0.42311998  0.14319944  0.06345156     0.72200
O182        O  0.52836651  0.16131115  0.97455752    -0.59500
O183        O  0.55785921  0.13406839  0.98796687    -0.51400
C184        C  0.55086152  0.15355036  0.97608536     0.74000
O185        O  0.44526989  0.15693935  0.97207319    -0.70900
O186        O  0.41706229  0.13052633  0.98905386    -0.49500
C187        C  0.42310980  0.14898463  0.97530294     0.75400
O188        O  0.52875077  0.15115866  0.06808290    -0.66200
O189        O  0.55834538  0.13481945  0.04251588    -0.53400
C190        C  0.55119878  0.14891719  0.06042471     0.73800
Zr191      Zr  0.48743808  0.13720299  0.05654986     2.77500
O192        O  0.48531022  0.18212672  0.05849011    -0.96900
O193        O  0.48953463  0.13274596  0.10137793    -0.77800
Zr194      Zr  0.48723930  0.14479217  0.98360636     2.70100
O195        O  0.48372730  0.18955008  0.98666164    -0.79000
O196        O  0.48890788  0.14546567  0.93850056    -0.98100
Zr197      Zr  0.53649311  0.10566067  0.01586769     2.21500
Zr198      Zr  0.44025259  0.10346437  0.01670505     2.11100
O199        O  0.46320095  0.14092946  0.02019946    -2.46800
O200        O  0.51143144  0.14180496  0.02004750    -0.78800
O201        O  0.46423090  0.10017881  0.05363820    -0.71000
O202        O  0.51220950  0.10893573  0.97900893    -2.31900
O203        O  0.51282095  0.10144637  0.05308365    -2.28200
O204        O  0.46376470  0.10807916  0.97959232    -0.72700
H205        H  0.45492624  0.05254779  0.01117297     0.79200
H206        H  0.52262041  0.11044171  0.96452999     0.80300
H207        H  0.45223972  0.15501820  0.02157665     0.82600
H208        H  0.52351636  0.10031475  0.06739316     0.80200
H209        H  0.49749562  0.06310857  0.92451026     0.43200
H210        H  0.50630974  0.14165644  0.93424234     0.42200
H211        H  0.47352536  0.19248959  0.00161649     0.41900
H212        H  0.49663673  0.18776396  0.04525138     0.39800
H213        H  0.49103160  0.14987421  0.10763471     0.42900
H214        H  0.49602341  0.04763907  0.09843773     0.37700
H215        H  0.48153031  0.01380292  0.06107652     0.43800
H216        H  0.47431627  0.02171685  0.98047540     0.40200
H217        H  0.46862618  0.18647094  0.05232236     0.45200
H218        H  0.47644016  0.06900243  0.09990050     0.43900
H219        H  0.48829998  0.02378536  0.95513657     0.44000
H220        H  0.47964726  0.13060159  0.93332109     0.44400
C221        C  0.08661514  0.02959840  0.61284059     0.81000
N222        N  0.07152037  0.04432965  0.59913349    -0.77300
C223        C  0.04711526  0.03858900  0.59668734     0.83500
N224        N  0.03792610  0.01810792  0.60810497    -0.77200
C225        C  0.05325524  0.00324920  0.62150197     0.83600
N226        N  0.07742434  0.00902735  0.62352465    -0.79000
C227        C  0.89554276  0.02577765  0.61788513     0.81000
N228        N  0.89986822  0.00130140  0.61861556    -0.77300
C229        C  0.91913969  0.99108779  0.60644952     0.83500
N230        N  0.93406712  0.00565631  0.59233072    -0.77200
C231        C  0.92975356  0.03056627  0.59124404     0.83600
N232        N  0.91065259  0.04064241  0.60440451    -0.79000
C233        C  0.93245084  0.19082441  0.62703485     0.81000
N234        N  0.94291774  0.17749823  0.60831997    -0.77300
C235        C  0.93375097  0.15475058  0.60245929     0.83500
N236        N  0.91346109  0.14607006  0.61447951    -0.77200
C237        C  0.90295510  0.15957290  0.63293947     0.83600
N238        N  0.91278560  0.18159009  0.63933551    -0.79000
C239        C  0.04571473  0.18736311  0.63092768     0.81000
N240        N  0.03488085  0.17615726  0.61113569    -0.77300
C241        C  0.03618363  0.15102286  0.60868715     0.83500
N242        N  0.04882302  0.13732701  0.62582570    -0.77200
C243        C  0.06004326  0.14870058  0.64527998     0.83600
N244        N  0.05815309  0.17350625  0.64760951    -0.79000
C245        C  0.92465640  0.18352480  0.40223872     0.81000
N246        N  0.93840444  0.17064144  0.41890687    -0.77300
C247        C  0.92721493  0.15505006  0.43517062     0.83500
N248        N  0.90220694  0.15175959  0.43413015    -0.77200
C249        C  0.88857095  0.16443108  0.41710498     0.83600
N250        N  0.89989849  0.18047302  0.40164624    -0.79000
C251        C  0.91274440  0.05138054  0.38795702     0.81000
N252        N  0.91888291  0.02782322  0.38257311    -0.77300
C253        C  0.93417851  0.01466839  0.39723790     0.83500
N254        N  0.94352277  0.02519681  0.41812009    -0.77200
C255        C  0.93790757  0.04920487  0.42366145     0.83600
N256        N  0.92251875  0.06237822  0.40844491    -0.79000
C257        C  0.06971544  0.04063037  0.39652179     0.81000
N258        N  0.06264688  0.01715401  0.39247156    -0.77300
C259        C  0.04532214  0.00618807  0.40653730     0.83500
N260        N  0.03480653  0.01902737  0.42559523    -0.77200
C261        C  0.04154901  0.04309853  0.42961325     0.83600
N262        N  0.05895645  0.05387578  0.41496301    -0.79000
C263        C  0.06458996  0.19276333  0.41925485     0.81000
N264        N  0.08780633  0.18411928  0.41586487    -0.77300
C265        C  0.09519855  0.16242443  0.42585039     0.83500
N266        N  0.07894455  0.14898926  0.43959531    -0.77200
C267        C  0.05535149  0.15745277  0.44302125     0.83600
N268        N  0.04827692  0.17944983  0.43294380    -0.79000
O269        O  0.94109916  0.04197669  0.55076550    -0.74500
O270        O  0.95753761  0.06355254  0.58323496    -0.53400
C271        C  0.94396910  0.04625447  0.57407902     0.79200
O272        O  0.03590762  0.05038008  0.47226539    -0.59100
O273        O  0.01661883  0.07581250  0.44443685    -0.52100
C274        C  0.03067504  0.05736821  0.45005272     0.71200
O275        O  0.03894486  0.04979452  0.55573244    -0.73700
O276        O  0.01366556  0.06523974  0.58604353    -0.54200
C277        C  0.03208877  0.05206040  0.57846003     0.77200
O278        O  0.94402803  0.05166939  0.46715964    -0.58800
O279        O  0.96348708  0.07939397  0.44187217    -0.51900
C280        C  0.94903148  0.06094700  0.44567063     0.73800
Zr281      Zr  0.95316320  0.06047156  0.51112446     2.54700
O282        O  0.95816355  0.01604271  0.50611109    -0.79400
O283        O  0.90832893  0.05924029  0.50748444    -0.92800
Zr284      Zr  0.02622232  0.06367259  0.51466486     2.64700
O285        O  0.03170631  0.01899797  0.51522285    -0.97700
O286        O  0.07061474  0.07058679  0.51272963    -0.79800
O287        O  0.98865204  0.05919906  0.53703035    -0.83200
O288        O  0.99058959  0.06421789  0.48913860    -2.17900
O289        O  0.93411748  0.14392176  0.47682614    -0.66600
O290        O  0.96215120  0.13165444  0.44755940    -0.51100
C291        C  0.94207593  0.14263317  0.45435997     0.72200
O292        O  0.02858955  0.14841626  0.56563927    -0.59500
O293        O  0.01201021  0.11904208  0.59104533    -0.51400
C294        C  0.02475254  0.13874193  0.58711948     0.74000
O295        O  0.04226675  0.14760797  0.48318217    -0.70900
O296        O  0.02102956  0.13116728  0.45051426    -0.49500
C297        C  0.03845853  0.14444075  0.45987247     0.75400
O298        O  0.93987928  0.14683484  0.56015044    -0.66200
O299        O  0.95901620  0.12171392  0.58835892    -0.53400
C300        C  0.94494866  0.14009325  0.58242321     0.73800
Zr301      Zr  0.94965682  0.13342843  0.51808428     2.77500
O302        O  0.94995623  0.17840016  0.51685449    -0.96900
O303        O  0.90481424  0.13148029  0.52098329    -0.77800
Zr304      Zr  0.02247715  0.13646103  0.52222835     2.70100
O305        O  0.01777796  0.18117894  0.52044509    -0.79000
O306        O  0.06620249  0.13871731  0.53259449    -0.98100
Zr307      Zr  0.98562352  0.09364697  0.56462746     2.21500
Zr308      Zr  0.99032828  0.10340633  0.46874890     2.11100
O309        O  0.98728503  0.13822411  0.49588058    -2.46800
O310        O  0.98484829  0.13257950  0.54413052    -0.78800
O311        O  0.95240701  0.09928239  0.49080538    -0.71000
O312        O  0.02360974  0.09763608  0.54240721    -2.31900
O313        O  0.94952479  0.09460941  0.53886281    -2.28200
O314        O  0.02621491  0.10252769  0.49441761    -0.72700
H315        H  0.99098647  0.05071359  0.47747847     0.79200
H316        H  0.03754078  0.09744038  0.55357689     0.80300
H317        H  0.98716754  0.15346793  0.48659574     0.82600
H318        H  0.93471163  0.09319028  0.54870605     0.80200
H319        H  0.07312715  0.08040095  0.49746565     0.43200
H320        H  0.07358745  0.12376744  0.52499585     0.42200
H321        H  0.03438373  0.18733534  0.51592639     0.41900
H322        H  0.93422097  0.18347812  0.52476641     0.39800
H323        H  0.89940609  0.14896668  0.52158808     0.42900
H324        H  0.90357092  0.07635561  0.50305944     0.37700
H325        H  0.94107913  0.00957787  0.50581977     0.43800
H326        H  0.02115694  0.01279485  0.50160836     0.40200
H327        H  0.96286232  0.18319133  0.52891567     0.45200
H328        H  0.90217840  0.05706920  0.52461517     0.43900
H329        H  0.04884903  0.01627579  0.50936307     0.44000
H330        H  0.07268873  0.15262369  0.52266112     0.44400
C331        C  0.00271053  0.34856094  0.28232102     0.04300
S332        S  0.98023874  0.32417012  0.28134903    -0.09700
C333        C  0.99369083  0.30854915  0.30736140    -0.00900
C334        C  0.01423259  0.31807492  0.31766221    -0.00900
S335        S  0.02707288  0.34573155  0.30481725    -0.09700
C336        C  0.01017004  0.40800284  0.24160782    -0.00900
C337        C  0.99283958  0.39583344  0.22854115    -0.00900
S338        S  0.97904369  0.36901204  0.24204613    -0.09700
C339        C  0.00143379  0.36799788  0.26664225     0.04300
S340        S  0.02204752  0.39392944  0.26925272    -0.09700
C341        C  0.25531810  0.09985728  0.30111741     0.04300
S342        S  0.22980251  0.07890474  0.29937795    -0.09700
C343        C  0.21419739  0.09382785  0.32429499    -0.00900
C344        C  0.22653459  0.11030575  0.33826902    -0.00900
S345        S  0.25641337  0.12018961  0.32762972    -0.09700
C346        C  0.30727407  0.11224783  0.25214908    -0.00900
C347        C  0.29498190  0.09376660  0.24087359    -0.00900
S348        S  0.27027723  0.07921490  0.25712364    -0.09700
C349        C  0.27229655  0.10036017  0.28276861     0.04300
S350        S  0.29706779  0.12238750  0.28217748    -0.09700
C351        C  0.23891748  0.37503132  0.00386924     0.04300
S352        S  0.21333097  0.37332177  0.02510520    -0.09700
C353        C  0.19871009  0.40044570  0.01260663    -0.00900
C354        C  0.21101611  0.41365068  0.99536512    -0.00900
S355        S  0.23962695  0.40142925  0.98354360    -0.09700
C356        C  0.29469406  0.32944136  0.99220904    -0.00900
C357        C  0.28304117  0.31721721  0.01062900    -0.00900
S358        S  0.25598565  0.33127304  0.02405657    -0.09700
C359        C  0.25659495  0.35719444  0.00317011     0.04300
S360        S  0.28164249  0.35800742  0.98121646    -0.09700
C361        C  0.71065294  0.11450645  0.27135003     0.04300
S362        S  0.68401663  0.13454205  0.27310957    -0.09700
C363        C  0.67154462  0.12304202  0.24445723    -0.00900
C364        C  0.68426114  0.10525297  0.23233975    -0.00900
S365        S  0.71151120  0.09276078  0.24627972    -0.09700
C366        C  0.77124672  0.10892602  0.31074164    -0.00900
C367        C  0.75874256  0.12552050  0.32457289    -0.00900
S368        S  0.72911879  0.13623670  0.31392347    -0.09700
C369        C  0.72946851  0.11556222  0.28779315     0.04300
S370        S  0.75636222  0.09620761  0.28408963    -0.09700
C371        C  0.98721573  0.82149128  0.31056688     0.04300
S372        S  0.95989673  0.83975865  0.31601660    -0.09700
C373        C  0.97531191  0.85930402  0.33781360    -0.00900
C374        C  0.99939984  0.85515877  0.34265492    -0.00900
S375        S  0.01448466  0.82954986  0.32781955    -0.09700
C376        C  0.00084048  0.76975512  0.26178485    -0.00900
C377        C  0.97805200  0.77687901  0.25456866    -0.00900
S378        S  0.96083528  0.79701733  0.27458148    -0.09700
C379        C  0.98735096  0.80303557  0.29368118     0.04300
S380        S  0.01414151  0.78386242  0.28870559    -0.09700
C381        C  0.23413722  0.07620268  0.75189780     0.04300
S382        S  0.23724388  0.05739623  0.72461650    -0.09700
C383        C  0.20742844  0.06643210  0.71333066    -0.00900
C384        C  0.19228351  0.07966850  0.72819408    -0.00900
S385        S  0.20460263  0.09082365  0.75693435    -0.09700
C386        C  0.28051293  0.09072298  0.80570646    -0.00900
C387        C  0.29479790  0.07584852  0.79161893    -0.00900
S388        S  0.28223095  0.06354962  0.76349770    -0.09700
C389        C  0.25311496  0.07917304  0.76790288     0.04300
S390        S  0.25039278  0.09898818  0.79453546    -0.09700
C391        C  0.99378425  0.39655154  0.73505558     0.04300
S392        S  0.96518792  0.41116050  0.74433101    -0.09700
C393        C  0.97939223  0.42647186  0.77015116    -0.00900
C394        C  0.00365902  0.42255618  0.77424847    -0.00900
S395        S  0.02120369  0.40578173  0.75149712    -0.09700
C396        C  0.00797440  0.34346472  0.68714421    -0.00900
C397        C  0.98311196  0.34373954  0.68632816    -0.00900
S398        S  0.96673083  0.36726838  0.70317936    -0.09700
C399        C  0.99453404  0.37900081  0.71711492     0.04300
S400        S  0.02325607  0.36543660  0.70680697    -0.09700
C401        C  0.25136881  0.85562117  0.02144944     0.04300
S402        S  0.25150399  0.88146166  0.00044465    -0.09700
C403        C  0.28040113  0.89278338  0.01191252    -0.00900
C404        C  0.29238540  0.87957318  0.02940062    -0.00900
S405        S  0.27794341  0.85215208  0.04127932    -0.09700
C406        C  0.20138097  0.80444111  0.03322169    -0.00900
C407        C  0.18900550  0.81890132  0.01711187    -0.00900
S408        S  0.20500262  0.84445559  0.00343713    -0.09700
C409        C  0.23203805  0.83979285  0.02236120     0.04300
S410        S  0.23189400  0.81336490  0.04265536    -0.09700
C411        C  0.69575640  0.37903310  0.00052844     0.04300
S412        S  0.69329285  0.35678418  0.02523438    -0.09700
C413        C  0.67206405  0.33787571  0.00832346    -0.00900
C414        C  0.66360790  0.34627974  0.98639108    -0.00900
S415        S  0.67812411  0.37292128  0.97289140    -0.09700
C416        C  0.74058516  0.43572106  0.99400334    -0.00900
C417        C  0.74322682  0.43071831  0.01840468    -0.00900
S418        S  0.72460010  0.40685574  0.03183486    -0.09700
C419        C  0.71038485  0.39918488  0.00278542     0.04300
S420        S  0.71694188  0.41940547  0.97715136    -0.09700
C421        C  0.98286118  0.81955586  0.71914709     0.04300
S422        S  0.95608104  0.82737902  0.70109276    -0.09700
C423        C  0.97136897  0.85292517  0.68667199    -0.00900
C424        C  0.99441672  0.85881358  0.69400081    -0.00900
S425        S  0.01013924  0.83809900  0.71455072    -0.09700
C426        C  0.99412621  0.76892389  0.76978362    -0.00900
C427        C  0.96961832  0.76579148  0.76632003    -0.00900
S428        S  0.95475497  0.78382302  0.74258635    -0.09700
C429        C  0.98254275  0.80065397  0.73551358     0.04300
S430        S  0.01008445  0.79134926  0.75139369    -0.09700
C431        C  0.72303878  0.09289381  0.73573376     0.04300
S432        S  0.73866491  0.12102405  0.72777563    -0.09700
C433        C  0.75991462  0.10519090  0.70804102    -0.00900
C434        C  0.75988597  0.08030129  0.70775463    -0.00900
S435        S  0.73416634  0.06471436  0.72163888    -0.09700
C436        C  0.66783686  0.08128337  0.78103661    -0.00900
C437        C  0.67516096  0.10373987  0.78894565    -0.00900
S438        S  0.69749187  0.11991963  0.77063373    -0.09700
C439        C  0.70409666  0.09308135  0.75202616     0.04300
S440        S  0.68471298  0.06659288  0.75643676    -0.09700
C441        C  0.70515354  0.83900610  0.03101025     0.04300
S442        S  0.70458145  0.86255175  0.00746169    -0.09700
C443        C  0.67940694  0.87854397  0.02185033    -0.00900
C444        C  0.66860248  0.86828173  0.04181547    -0.00900
S445        S  0.68186130  0.84076093  0.05477107    -0.09700
C446        C  0.75058035  0.78313656  0.04090057    -0.00900
C447        C  0.76126334  0.79404361  0.02112548    -0.00900
S448        S  0.74578760  0.81982321  0.00713213    -0.09700
C449        C  0.72248165  0.82094760  0.03081444     0.04300
S450        S  0.72349417  0.79720093  0.05413073    -0.09700
C451        C  0.06062762  0.24661395  0.38383558     0.30600
C452        C  0.06761256  0.26246326  0.36456594    -0.35800
C453        C  0.05064344  0.28105623  0.35843545     0.16500
C454        C  0.02843637  0.28404101  0.37072093     0.22400
C455        C  0.02174405  0.26854052  0.39046838    -0.33900
C456        C  0.03851532  0.24959306  0.39625301     0.16400
O457        O  0.07254844  0.22655045  0.39066630    -0.25900
C458        C  0.05791105  0.21635066  0.40757564     0.06200
C459        C  0.03642567  0.22988374  0.41191513    -0.30800
O460        O  0.01352714  0.29950459  0.35919073    -0.22600
C461        C  0.02630438  0.30649830  0.33931821    -0.02600
C462        C  0.04971861  0.29598895  0.33814759    -0.17100
H463        H  0.08430104  0.25937938  0.35391749     0.20900
H464        H  0.00383572  0.26990367  0.39931289     0.19300
H465        H  0.02123495  0.22545768  0.42416498     0.19200
H466        H  0.06270215  0.29665881  0.32289733     0.15100
C467        C  0.15622567  0.15586153  0.40552156     0.30600
C468        C  0.17675645  0.16328444  0.39150407    -0.35800
C469        C  0.19297359  0.14448783  0.38393177     0.16500
C470        C  0.18940793  0.12005312  0.39023815     0.22400
C471        C  0.16921333  0.11272969  0.40490648    -0.33900
C472        C  0.15270723  0.13149526  0.41204773     0.16400
O473        O  0.13694185  0.16977832  0.41077618    -0.25900
C474        C  0.12077047  0.15431834  0.42092223     0.06200
C475        C  0.12962785  0.13018446  0.42240930    -0.30800
O476        O  0.20334623  0.10503369  0.37698464    -0.22600
C477        C  0.21584352  0.11986535  0.36179382    -0.02600
C478        C  0.21061885  0.14470875  0.36578894    -0.17100
H479        H  0.17863759  0.18207481  0.38494876     0.20900
H480        H  0.16529311  0.09344013  0.40832992     0.19300
H481        H  0.11973345  0.11381559  0.42813800     0.19200
H482        H  0.21590472  0.16018687  0.35428876     0.15100
C483        C  0.11551318  0.07313874  0.36441953     0.30600
C484        C  0.12895754  0.09349176  0.35580624    -0.35800
C485        C  0.15100872  0.08788277  0.34324723     0.16500
C486        C  0.15936914  0.06398498  0.33971097     0.22400
C487        C  0.14554069  0.04374035  0.34746507    -0.33900
C488        C  0.12354494  0.04932306  0.35979470     0.16400
O489        O  0.09532106  0.07377459  0.37821584    -0.25900
C490        C  0.09042976  0.05000828  0.38196989     0.06200
C491        C  0.10730256  0.03411006  0.37087033    -0.30800
O492        O  0.18208827  0.06299073  0.33112223    -0.22600
C493        C  0.18844581  0.08652836  0.32917608    -0.02600
C494        C  0.16947735  0.10286248  0.33545744    -0.17100
H495        H  0.12333169  0.11230673  0.35971145     0.20900
H496        H  0.15212578  0.02495779  0.34526304     0.19300
H497        H  0.10794089  0.01412704  0.37159803     0.19200
H498        H  0.17009503  0.12281407  0.33642478     0.15100
C499        C  0.02082709  0.90205798  0.38151281     0.30600
C500        C  0.01867812  0.91811942  0.40200941    -0.35800
C501        C  0.02752365  0.94228452  0.39854624     0.16500
C502        C  0.03819073  0.94963813  0.37656145     0.22400
C503        C  0.04051856  0.93366952  0.35628992    -0.33900
C504        C  0.03139672  0.90981148  0.35961690     0.16400
O505        O  0.01052021  0.88009728  0.37930146    -0.25900
C506        C  0.01448789  0.87385391  0.35571381     0.06200
C507        C  0.02775672  0.89151706  0.34275384    -0.30800
O508        O  0.04505054  0.97280910  0.37691419    -0.22600
C509        C  0.03863860  0.98086367  0.39929691    -0.02600
C510        C  0.02745631  0.96270008  0.41372875    -0.17100
H511        H  0.00967307  0.91252259  0.41899433     0.20900
H512        H  0.04807981  0.93977198  0.33876825     0.19300
H513        H  0.03133929  0.89217391  0.32302741     0.19200
H514        H  0.02079632  0.96415568  0.43258330     0.15100
C515        C  0.83168150  0.10133101  0.33353376     0.30600
C516        C  0.85203908  0.10787732  0.34828693    -0.35800
C517        C  0.86770819  0.08844629  0.35542431     0.16500
C518        C  0.86386481  0.06442479  0.34783290     0.22400
C519        C  0.84374701  0.05794026  0.33283696    -0.33900
C520        C  0.82777830  0.07723413  0.32625255     0.16400
O521        O  0.81307097  0.11589358  0.32764025    -0.25900
C522        C  0.79683343  0.10093552  0.31681766     0.06200
C523        C  0.80524849  0.07671620  0.31496428    -0.30800
O524        O  0.87964245  0.04890314  0.35784217    -0.22600
C525        C  0.89370793  0.06293101  0.37231790    -0.02600
C526        C  0.88720805  0.08782001  0.37159208    -0.17100
H527        H  0.85460022  0.12654631  0.35496246     0.20900
H528        H  0.84005952  0.03894316  0.32783394     0.19300
H529        H  0.79532128  0.06072656  0.30828215     0.19200
H530        H  0.89508902  0.10297147  0.38197748     0.15100
C531        C  0.95509606  0.90999724  0.37257859     0.30600
C532        C  0.95593853  0.92574464  0.39324505    -0.35800
C533        C  0.94902939  0.95034432  0.38903122     0.16500
C534        C  0.94116356  0.95855930  0.36615865     0.22400
C535        C  0.94020296  0.94282020  0.34552515    -0.33900
C536        C  0.94764062  0.91837127  0.34962683     0.16400
O537        O  0.96368889  0.88727213  0.37173774    -0.25900
C538        C  0.96212740  0.88106679  0.34795446     0.06200
C539        C  0.95178484  0.89952942  0.33333756    -0.30800
O540        O  0.93546524  0.98215014  0.36629258    -0.22600
C541        C  0.93996566  0.98933499  0.38943417    -0.02600
C542        C  0.94864523  0.97036549  0.40449266    -0.17100
H543        H  0.96249417  0.91946966  0.41110727     0.20900
H544        H  0.93482785  0.94941041  0.32737317     0.19300
H545        H  0.95000561  0.89992347  0.31336551     0.19200
H546        H  0.95337730  0.97108911  0.42395779     0.15100
C547        C  0.93872928  0.23079109  0.36046821     0.30600
C548        C  0.93393092  0.25193726  0.34621170    -0.35800
C549        C  0.95438238  0.26239924  0.33429169     0.16500
C550        C  0.97788669  0.25259659  0.33615279     0.22400
C551        C  0.98265812  0.23135137  0.35028929    -0.33900
C552        C  0.96226183  0.22106384  0.36245779     0.16400
O553        O  0.92254461  0.21873088  0.37401750    -0.25900
C554        C  0.93589127  0.20120853  0.38504129     0.06200
C555        C  0.96075233  0.20173940  0.37857933    -0.30800
O556        O  0.99461986  0.26665582  0.32553144    -0.22600
C557        C  0.98175843  0.28583699  0.31691709    -0.02600
C558        C  0.95654986  0.28394661  0.32143954    -0.17100
H559        H  0.91569548  0.26016592  0.34522659     0.20900
H560        H  0.00116128  0.22402023  0.35252773     0.19300
H561        H  0.97550349  0.18976503  0.38493408     0.19200
H562        H  0.94227089  0.29749217  0.31769349     0.15100
C563        C  0.82799788  0.16568094  0.39573708     0.30600
C564        C  0.80997498  0.17461863  0.37935146    -0.35800
C565        C  0.79248957  0.15748902  0.37116496     0.16500
C566        C  0.79254291  0.13319753  0.37893496     0.22400
C567        C  0.81012728  0.12443902  0.39603325    -0.33900
C568        C  0.82790597  0.14154095  0.40394714     0.16400
O569        O  0.84856606  0.17720747  0.40136399    -0.25900
C570        C  0.86192535  0.16050924  0.41354089     0.06200
C571        C  0.84989506  0.13794515  0.41601245    -0.30800
O572        O  0.77823282  0.11922033  0.36507889    -0.22600
C573        C  0.76886287  0.13469055  0.34830003    -0.02600
C574        C  0.77673821  0.15884867  0.35148739    -0.17100
H575        H  0.81108378  0.19298655  0.37152700     0.20900
H576        H  0.81144614  0.10504469  0.40073232     0.19300
H577        H  0.85749717  0.12066970  0.42270593     0.19200
H578        H  0.77428372  0.17420613  0.33887704     0.15100
C579        C  0.02834770  0.29409150  0.65041051     0.30600
C580        C  0.02562106  0.27727104  0.63067655    -0.35800
C581        C  0.03469608  0.25325653  0.63479143     0.16500
C582        C  0.04606896  0.24663561  0.65667934     0.22400
C583        C  0.04899573  0.26344484  0.67621988    -0.33900
C584        C  0.03961676  0.28723433  0.67227205     0.16400
O585        O  0.01790513  0.31607010  0.65200874    -0.25900
C586        C  0.02235312  0.32331548  0.67518535     0.06200
C587        C  0.03619135  0.30624940  0.68852012    -0.30800
O588        O  0.05171687  0.22303964  0.65748213    -0.22600
C589        C  0.04380643  0.21408601  0.63595738    -0.02600
C590        C  0.03302252  0.23207262  0.62091613    -0.17100
H591        H  0.01576111  0.28215003  0.61392990     0.20900
H592        H  0.05681976  0.25791849  0.69382507     0.19300
H593        H  0.04041308  0.30649170  0.70811995     0.19200
H594        H  0.02450562  0.22974206  0.60293311     0.15100
C595        C  0.09825180  0.10821131  0.67949427     0.30600
C596        C  0.11177430  0.08651173  0.68455976    -0.35800
C597        C  0.13151042  0.08894139  0.70142337     0.16500
C598        C  0.13755212  0.11113591  0.71239782     0.22400
C599        C  0.12344819  0.13242137  0.70818434    -0.33900
C600        C  0.10384730  0.13002547  0.69144870     0.16400
O601        O  0.08122179  0.11124538  0.66206025    -0.25900
C602        C  0.07582781  0.13529303  0.66318935     0.06200
C603        C  0.08919434  0.14764725  0.68135228    -0.30800
O604        O  0.15879734  0.11030827  0.72435107    -0.22600
C605        C  0.16672706  0.08728307  0.72105731    -0.02600
C606        C  0.14988928  0.07287179  0.70779710    -0.17100
H607        H  0.10825008  0.06939105  0.67483618     0.20900
H608        H  0.12846211  0.15008257  0.71608645     0.19300
H609        H  0.08943239  0.16725630  0.68530556     0.19200
H610        H  0.15173507  0.05381604  0.70207950     0.15100
C611        C  0.94773376  0.24489459  0.65863012     0.30600
C612        C  0.94966255  0.26006262  0.67956982    -0.35800
C613        C  0.95647760  0.28457035  0.67517824     0.16500
C614        C  0.96111834  0.29362844  0.65176134     0.22400
C615        C  0.95941225  0.27831456  0.63072490    -0.33900
C616        C  0.95272553  0.25361992  0.63514488     0.16400
O617        O  0.94084086  0.22164272  0.65864315    -0.25900
C618        C  0.94184439  0.21500536  0.63494933     0.06200
C619        C  0.94922210  0.23411666  0.61935199    -0.30800
O620        O  0.96899511  0.31668828  0.65226046    -0.22600
C621        C  0.96928803  0.32241127  0.67629196    -0.02600
C622        C  0.96156289  0.30314203  0.69134805    -0.17100
H623        H  0.94625834  0.25314608  0.69806618     0.20900
H624        H  0.96347751  0.28505691  0.61230272     0.19300
H625        H  0.95056128  0.23399424  0.59934338     0.19200
H626        H  0.96185167  0.30225229  0.71138294     0.15100
C627        C  0.84459447  0.13732071  0.64901366     0.30600
C628        C  0.82229275  0.12474691  0.64566695    -0.35800
C629        C  0.80526381  0.12662368  0.66514320     0.16500
C630        C  0.80991801  0.13969560  0.68661896     0.22400
C631        C  0.83190943  0.15292535  0.68961620    -0.33900
C632        C  0.84889436  0.15112528  0.67008334     0.16400
O633        O  0.86344245  0.13749988  0.63352062    -0.25900
C634        C  0.87990984  0.15178154  0.64476511     0.06200
C635        C  0.87184721  0.16079948  0.66752581    -0.30800
O636        O  0.79328306  0.13560457  0.70399494    -0.22600
C637        C  0.77782157  0.11975084  0.69346644    -0.02600
C638        C  0.78392289  0.11419450  0.66901302    -0.17100
H639        H  0.81886619  0.11346340  0.62947802     0.20900
H640        H  0.83601130  0.16291725  0.70648466     0.19300
H641        H  0.88144975  0.17293861  0.68019293     0.19200
H642        H  0.77555987  0.10054748  0.65701965     0.15100
C643        C  0.92210742  0.93223959  0.63205891     0.30600
C644        C  0.91654856  0.91518607  0.65073612    -0.35800
C645        C  0.93334658  0.89574433  0.65369109     0.16500
C646        C  0.95415672  0.89319762  0.63909237     0.22400
C647        C  0.95950073  0.91009792  0.62006508    -0.33900
C648        C  0.94279878  0.92979724  0.61729269     0.16400
O649        O  0.91070076  0.95336399  0.62865859    -0.25900
C650        C  0.92414261  0.96490162  0.61161903     0.06200
C651        C  0.94434470  0.95104769  0.60359030    -0.30800
O652        O  0.96932087  0.87613367  0.64761683    -0.22600
C653        C  0.95806010  0.86763353  0.66783253    -0.02600
C654        C  0.93541105  0.87889188  0.67230841    -0.17100
H655        H  0.90116799  0.91793553  0.66328898     0.20900
H656        H  0.97647820  0.90902393  0.60950673     0.19300
H657        H  0.95900503  0.95659842  0.59116347     0.19200
H658        H  0.92379412  0.87711608  0.68854250     0.15100
C659        C  0.83970153  0.03427085  0.64901274     0.30600
C660        C  0.81508915  0.02902823  0.65547485    -0.35800
C661        C  0.80470644  0.04392112  0.67409953     0.16500
C662        C  0.81803996  0.06212349  0.68590455     0.22400
C663        C  0.84260046  0.06728342  0.67950820    -0.33900
C664        C  0.85266037  0.05301070  0.66037493     0.16400
O665        O  0.85287807  0.02298177  0.63188063    -0.25900
C666        C  0.87424967  0.03509539  0.63179002     0.06200
C667        C  0.87522483  0.05400818  0.64913060    -0.30800
O668        O  0.80430978  0.07552037  0.70081466    -0.22600
C669        C  0.78166305  0.06636302  0.69829255    -0.02600
C670        C  0.78082221  0.04620912  0.68227372    -0.17100
H671        H  0.80452209  0.01498755  0.64597224     0.20900
H672        H  0.85271618  0.08226255  0.68801621     0.19300
H673        H  0.89064489  0.06587836  0.65358506     0.19200
H674        H  0.76469427  0.03644594  0.67569499     0.15100
C675        C  0.17934925  0.06346538  0.65560818     0.30600
C676        C  0.16142483  0.07284443  0.63926248    -0.35800
C677        C  0.14524531  0.05549932  0.62892737     0.16500
C678        C  0.14715882  0.03056129  0.63395210     0.22400
C679        C  0.16579885  0.02107375  0.64922466    -0.33900
C680        C  0.18155070  0.03839714  0.66002187     0.16400
O681        O  0.19094188  0.07666802  0.67243052    -0.25900
C682        C  0.20058507  0.05995321  0.68773001     0.06200
C683        C  0.19599219  0.03582369  0.68052122    -0.30800
O684        O  0.12748218  0.01828147  0.62704226    -0.22600
C685        C  0.11269618  0.03532932  0.61730188    -0.02600
C686        C  0.12287867  0.05889118  0.61759074    -0.17100
H687        H  0.15825398  0.09250721  0.63736691     0.20900
H688        H  0.16599098  0.00186804  0.65480208     0.19300
H689        H  0.19892970  0.01920453  0.69129405     0.19200
H690        H  0.11386802  0.07622941  0.61318797     0.15100
C691        C  0.02305184  0.95621521  0.65405467     0.30600
C692        C  0.00418252  0.94532767  0.66796810    -0.35800
C693        C  0.00852830  0.92104144  0.67584858     0.16500
C694        C  0.02970254  0.90795578  0.67007660     0.22400
C695        C  0.04898204  0.91912426  0.65676756    -0.33900
C696        C  0.04478087  0.94363811  0.64918880     0.16400
O697        O  0.02261581  0.97860055  0.64434603    -0.25900
C698        C  0.04451257  0.98051825  0.63339443     0.06200
C699        C  0.05912355  0.95942704  0.63595347    -0.30800
O700        O  0.02839443  0.88449509  0.67687811    -0.22600
C701        C  0.00608177  0.88270440  0.68716966    -0.02600
C702        C  0.99340891  0.90513178  0.68777445    -0.17100
H703        H  0.98701295  0.95489674  0.67185653     0.20900
H704        H  0.06574067  0.90921307  0.65202113     0.19300
H705        H  0.07762140  0.95623746  0.62896397     0.19200
H706        H  0.97484147  0.90872740  0.69433598     0.15100
C707        C  0.37514723  0.14304822  0.17496976     0.30600
C708        C  0.37419207  0.12466800  0.19331708    -0.35800
C709        C  0.35758777  0.12891798  0.21293554     0.16500
C710        C  0.34290360  0.14981741  0.21432752     0.22400
C711        C  0.34460862  0.16855739  0.19657492    -0.33900
C712        C  0.36101072  0.16423771  0.17697788     0.16400
O713        O  0.38617083  0.14118567  0.15315321    -0.25900
C714        C  0.37896455  0.16149292  0.14119296     0.06200
C715        C  0.36351819  0.17653380  0.15525763    -0.30800
O716        O  0.32488583  0.14764623  0.23061017    -0.22600
C717        C  0.32799803  0.12515987  0.23992871    -0.02600
C718        C  0.34855439  0.11293534  0.23016507    -0.17100
H719        H  0.38393113  0.10728321  0.19125510     0.20900
H720        H  0.33221790  0.18430358  0.19671235     0.19300
H721        H  0.35385089  0.19311382  0.14951315     0.19200
H722        H  0.35348725  0.09366802  0.23244209     0.15100
C723        C  0.32738453  0.23070698  0.06147036     0.30600
C724        C  0.30988013  0.24936498  0.06620020    -0.35800
C725        C  0.30287332  0.26385144  0.04582091     0.16500
C726        C  0.31203283  0.25981770  0.02232795     0.22400
C727        C  0.32914606  0.24081663  0.01749632    -0.33900
C728        C  0.33668887  0.22677444  0.03798829     0.16400
O729        O  0.33785070  0.21632992  0.07815155    -0.25900
C730        C  0.35416905  0.20302343  0.06528893     0.06200
C731        C  0.35428773  0.20872826  0.04013703    -0.30800
O732        O  0.30500017  0.27702374  0.00657581    -0.22600
C733        C  0.29161834  0.29272244  0.02013642    -0.02600
C734        C  0.28913280  0.28503179  0.04462321    -0.17100
H735        H  0.30315362  0.25311827  0.08471732     0.20900
H736        H  0.33687066  0.23790975  0.99924584     0.19300
H737        H  0.36603315  0.20118871  0.02572972     0.19200
H738        H  0.28026177  0.29470429  0.05978374     0.15100
C739        C  0.31769697  0.08430588  0.18067759     0.30600
C740        C  0.33085330  0.09117892  0.15933237    -0.35800
C741        C  0.34186044  0.07182724  0.14595173     0.16500
C742        C  0.33945136  0.04740180  0.15281797     0.22400
C743        C  0.32608449  0.04052111  0.17394829    -0.33900
C744        C  0.31553305  0.05987041  0.18757807     0.16400
O745        O  0.30894873  0.09948665  0.19764769    -0.25900
C746        C  0.30141774  0.08462743  0.21578160     0.06200
C747        C  0.30452106  0.05974861  0.21025973    -0.30800
O748        O  0.35169974  0.03233624  0.13812696    -0.22600
C749        C  0.36234349  0.04721276  0.12171332    -0.02600
C750        C  0.35698211  0.07206705  0.12567092    -0.17100
H751        H  0.33338533  0.11033933  0.15425101     0.20900
H752        H  0.32492376  0.02148107  0.17993215     0.19300
H753        H  0.30146876  0.04404594  0.22226840     0.19200
H754        H  0.36322045  0.08788194  0.11515790     0.15100
C755        C  0.34830314  0.90962501  0.04016921     0.30600
C756        C  0.36607123  0.92703926  0.03279207    -0.35800
C757        C  0.37413824  0.94354949  0.05112966     0.16500
C758        C  0.36555237  0.94255440  0.07519120     0.22400
C759        C  0.34855555  0.92458461  0.08277501    -0.33900
C760        C  0.34012241  0.90844090  0.06437376     0.16400
O761        O  0.33408476  0.89696782  0.02498749    -0.25900
C762        C  0.31651947  0.88766688  0.03952765     0.06200
C763        C  0.31974504  0.89368097  0.06433322    -0.30800
O764        O  0.37154871  0.96226425  0.08806829    -0.22600
C765        C  0.38429565  0.97614397  0.07229082    -0.02600
C766        C  0.38681357  0.96529141  0.04902274    -0.17100
H767        H  0.37109996  0.92935101  0.01351995     0.20900
H768        H  0.34042568  0.92493613  0.10110350     0.19300
H769        H  0.30675189  0.89100302  0.07934388     0.19200
H770        H  0.39412292  0.97354061  0.03230221     0.15100
C771        C  0.37477601  0.04091609  0.85250889     0.30600
C772        C  0.35955569  0.03107774  0.83404303    -0.35800
C773        C  0.34837321  0.04812900  0.81810834     0.16500
C774        C  0.35272463  0.07320989  0.81965550     0.22400
C775        C  0.36924488  0.08291462  0.83717143    -0.33900
C776        C  0.37971299  0.06591033  0.85376002     0.16400
O777        O  0.38059269  0.02930804  0.87306188    -0.25900
C778        C  0.38950117  0.04683569  0.88770357     0.06200
C779        C  0.38996831  0.06996952  0.87652759    -0.30800
O780        O  0.33581386  0.08621368  0.80786496    -0.22600
C781        C  0.32039147  0.06937271  0.79882154    -0.02600
C782        C  0.32766061  0.04533268  0.80405013    -0.17100
H783        H  0.35396037  0.01190652  0.83441859     0.20900
H784        H  0.37089883  0.10263729  0.84001658     0.19300
H785        H  0.39327152  0.08762774  0.88532539     0.19200
H786        H  0.31698069  0.02864959  0.80155402     0.15100
C787        C  0.30710649  0.94068428  0.97720700     0.30600
C788        C  0.31810899  0.95123432  0.95621995    -0.35800
C789        C  0.33183057  0.97279849  0.96028961     0.16500
C790        C  0.33482579  0.98327320  0.98341291     0.22400
C791        C  0.32340645  0.97295904  0.00436494    -0.33900
C792        C  0.30943514  0.95149740  0.00025347     0.16400
O793        O  0.29538083  0.91934456  0.97800778    -0.25900
C794        C  0.29008816  0.91640058  0.00189162     0.06200
C795        C  0.29786345  0.93616578  0.01648729    -0.30800
O796        O  0.34974862  0.00260644  0.98305208    -0.22600
C797        C  0.35614821  0.00461743  0.95930214    -0.02600
C798        C  0.34539982  0.98663024  0.94436751    -0.17100
H799        H  0.31675775  0.94277027  0.93809908     0.20900
H800        H  0.32587837  0.98065042  0.02270659     0.19300
H801        H  0.29681807  0.93799044  0.03643157     0.19200
H802        H  0.34785054  0.98373057  0.92466544     0.15100
C803        C  0.36179140  0.25958546  0.94658363     0.30600
C804        C  0.34403980  0.27683998  0.93881592    -0.35800
C805        C  0.33800763  0.29551758  0.95576262     0.16500
C806        C  0.34918697  0.29743542  0.97867690     0.22400
C807        C  0.36784350  0.28079950  0.98598198    -0.33900
C808        C  0.37345380  0.26171819  0.96922120     0.16400
O809        O  0.36577582  0.23799934  0.93607027    -0.25900
C810        C  0.38026928  0.22604426  0.95196557     0.06200
C811        C  0.38598806  0.24001725  0.97283901    -0.30800
O812        O  0.33680858  0.31216897  0.99376118    -0.22600
C813        C  0.31749491  0.31973269  0.98041523    -0.02600
C814        C  0.31765739  0.31043635  0.95643739    -0.17100
H815        H  0.33357172  0.27417313  0.92194878     0.20900
H816        H  0.37523446  0.28091753  0.00461287     0.19300
H817        H  0.39526291  0.23392707  0.98953259     0.19200
H818        H  0.30285242  0.31129237  0.94298236     0.15100
C819        C  0.32676562  0.14376295  0.88896525     0.30600
C820        C  0.30919146  0.14797818  0.87035082    -0.35800
C821        C  0.30136488  0.12713526  0.85720541     0.16500
C822        C  0.31008365  0.10368175  0.86219921     0.22400
C823        C  0.32738916  0.09938484  0.88116153    -0.33900
C824        C  0.33550344  0.12033771  0.89410728     0.16400
O825        O  0.33770695  0.16088312  0.90226856    -0.25900
C826        C  0.35374096  0.14841573  0.91618296     0.06200
C827        C  0.35321680  0.12303325  0.91195248    -0.30800
O828        O  0.30249119  0.08738490  0.84576094    -0.22600
C829        C  0.28892037  0.10059628  0.82993213    -0.02600
C830        C  0.28713910  0.12535102  0.83646650    -0.17100
H831        H  0.30291272  0.16640378  0.86568913     0.20900
H832        H  0.33489901  0.08117168  0.88471701     0.19300
H833        H  0.36462062  0.10881732  0.92027869     0.19200
H834        H  0.27860628  0.14022593  0.82611899     0.15100
C835        C  0.62793704  0.24243118  0.03967748     0.30600
C836        C  0.63983849  0.25273219  0.01894771    -0.35800
C837        C  0.64984109  0.27648170  0.02228494     0.16500
C838        C  0.64791675  0.28938494  0.04426834     0.22400
C839        C  0.63657836  0.27889313  0.06504534    -0.33900
C840        C  0.62688775  0.25513911  0.06183636     0.16400
O841        O  0.61687732  0.22064657  0.04090943    -0.25900
C842        C  0.60897936  0.21945290  0.06429281     0.06200
C843        C  0.61480483  0.24036356  0.07803572    -0.30800
O844        O  0.65647554  0.31214047  0.04267000    -0.22600
C845        C  0.66399877  0.31398627  0.01930302    -0.02600
C846        C  0.66110121  0.29201236  0.00603746    -0.17100
H847        H  0.64080695  0.24316871  0.00135096     0.20900
H848        H  0.63491888  0.28879342  0.08239686     0.19300
H849        H  0.61063534  0.24413625  0.09729451     0.19200
H850        H  0.66539896  0.28843683  0.98679081     0.15100
C851        C  0.59859455  0.15141811  0.17112851     0.30600
C852        C  0.60171635  0.13238286  0.18855004    -0.35800
C853        C  0.61814726  0.13721465  0.20812785     0.16500
C854        C  0.63068961  0.15928512  0.21032214     0.22400
C855        C  0.62666213  0.17866189  0.19359028    -0.33900
C856        C  0.61045552  0.17375981  0.17398595     0.16400
O857        O  0.58763408  0.14942531  0.14932923    -0.25900
C858        C  0.59253589  0.17079573  0.13818440     0.06200
C859        C  0.60643284  0.18668987  0.15280382    -0.30800
O860        O  0.64942467  0.15787033  0.22588525    -0.22600
C861        C  0.64901358  0.13466360  0.23385782    -0.02600
C862        C  0.62927675  0.12123497  0.22417289    -0.17100
H863        H  0.59384100  0.11425562  0.18569739     0.20900
H864        H  0.63742728  0.19545306  0.19430122     0.19300
H865        H  0.61429870  0.20432216  0.14768083     0.19200
H866        H  0.62632997  0.10150416  0.22542799     0.15100
C867        C  0.60777479  0.26616350  0.94452459     0.30600
C868        C  0.62470336  0.28380077  0.93613435    -0.35800
C869        C  0.62722177  0.30496372  0.95077540     0.16500
C870        C  0.61370109  0.30859051  0.97219132     0.22400
C871        C  0.59607146  0.29124521  0.98013974    -0.33900
C872        C  0.59385765  0.26982332  0.96564146     0.16400
O873        O  0.60584377  0.24360114  0.93585677    -0.25900
C874        C  0.59047134  0.23241971  0.95142476     0.06200
C875        C  0.58214106  0.24789354  0.97031993    -0.30800
O876        O  0.62311615  0.32620068  0.98610017    -0.22600
C877        C  0.64287476  0.33390037  0.97355197    -0.02600
C878        C  0.64588352  0.32183017  0.95105576    -0.17100
H879        H  0.63686303  0.28011242  0.92062227     0.20900
H880        H  0.58672499  0.29309638  0.99778282     0.19300
H881        H  0.57098364  0.24310456  0.98624454     0.19200
H882        H  0.66189000  0.32227929  0.93902671     0.15100
C883        C  0.63478772  0.15511458  0.87771274     0.30600
C884        C  0.64670002  0.16090561  0.85533875    -0.35800
C885        C  0.65456628  0.14076751  0.84099865     0.16500
C886        C  0.65132519  0.11665986  0.84848268     0.22400
C887        C  0.63943986  0.11085229  0.87088886    -0.33900
C888        C  0.63111960  0.13098443  0.88501325     0.16400
O889        O  0.62481436  0.17106852  0.89316700    -0.25900
C890        C  0.61437051  0.15711266  0.91053848     0.06200
C891        C  0.61767156  0.13192542  0.90647704    -0.30800
O892        O  0.65894747  0.10071527  0.83172270    -0.22600
C893        C  0.66660047  0.11462334  0.81287354    -0.02600
C894        C  0.66476968  0.13979800  0.81784993    -0.17100
H895        H  0.64892317  0.17978873  0.84917603     0.20900
H896        H  0.63616935  0.09194697  0.87647186     0.19300
H897        H  0.61073442  0.11665204  0.91734792     0.19200
H898        H  0.66918368  0.15509598  0.80575278     0.15100
C899        C  0.63386462  0.97356543  0.99086827     0.30600
C900        C  0.64614902  0.96346385  0.01150158    -0.35800
C901        C  0.65629647  0.93968321  0.00822762     0.16500
C902        C  0.65444348  0.92674900  0.98624529     0.22400
C903        C  0.64253930  0.93694461  0.96564155    -0.33900
C904        C  0.63249161  0.96058547  0.96889157     0.16400
O905        O  0.62240341  0.99523366  0.98966558    -0.25900
C906        C  0.61386901  0.99598176  0.96651091     0.06200
C907        C  0.61965507  0.97493962  0.95289800    -0.30800
O908        O  0.66341503  0.90411570  0.98775786    -0.22600
C909        C  0.67105229  0.90234363  0.01106568    -0.02600
C910        C  0.66752763  0.92408426  0.02455474    -0.17100
H911        H  0.64720153  0.97315412  0.02901309     0.20900
H912        H  0.64066385  0.92686948  0.94842117     0.19300
H913        H  0.61492806  0.97078740  0.93385840     0.19200
H914        H  0.67129774  0.92732972  0.04397341     0.15100
C915        C  0.61719299  0.06490109  0.81712233     0.30600
C916        C  0.59922851  0.07177477  0.83464277    -0.35800
C917        C  0.59659658  0.05601439  0.85505988     0.16500
C918        C  0.61022170  0.03455003  0.85754430     0.22400
C919        C  0.62740222  0.02715281  0.83955596    -0.33900
C920        C  0.63060980  0.04327062  0.81957399     0.16400
O921        O  0.62705915  0.07993700  0.80075887    -0.25900
C922        C  0.64716902  0.06802323  0.79292208     0.06200
C923        C  0.64987042  0.04477180  0.80338030    -0.30800
O924        O  0.60812668  0.02479441  0.87972113    -0.22600
C925        C  0.59300453  0.04008578  0.89172864    -0.02600
C926        C  0.58499262  0.05979228  0.87725362    -0.17100
H927        H  0.59013475  0.08960476  0.83392288     0.20900
H928        H  0.63943200  0.01138381  0.84239961     0.19300
H929        H  0.66583278  0.03269657  0.80234453     0.19200
H930        H  0.57423490  0.07570793  0.88295953     0.15100
C931        C  0.66080138  0.09414483  0.17269021     0.30600
C932        C  0.64695945  0.09966782  0.15140010    -0.35800
C933        C  0.63975775  0.07936599  0.13702102     0.16500
C934        C  0.64609430  0.05538866  0.14308780     0.22400
C935        C  0.66012288  0.04991483  0.16418196    -0.33900
C936        C  0.66700130  0.07013674  0.17869875     0.16400
O937        O  0.66716530  0.10990644  0.19010173    -0.25900
C938        C  0.67717063  0.09576901  0.20763603     0.06200
C939        C  0.67799166  0.07091727  0.20131973    -0.30800
O940        O  0.63572101  0.03908970  0.12842585    -0.22600
C941        C  0.62247656  0.05267423  0.11276239    -0.02600
C942        C  0.62434872  0.07793075  0.11707745    -0.17100
H943        H  0.64112738  0.11832471  0.14708733     0.20900
H944        H  0.66426663  0.03109557  0.16958023     0.19300
H945        H  0.68411850  0.05551068  0.21255158     0.19200
H946        H  0.61467923  0.09285244  0.10785098     0.15100
C947        C  0.61611539  0.90343450  0.05421171     0.30600
C948        C  0.59875318  0.92107331  0.04632426    -0.35800
C949        C  0.59407065  0.94062247  0.06271300     0.16500
C950        C  0.60544393  0.94235134  0.08553884     0.22400
C951        C  0.62178981  0.92403264  0.09396632    -0.33900
C952        C  0.62686600  0.90476806  0.07738280     0.16400
O953        O  0.62789532  0.88801405  0.03946326    -0.25900
C954        C  0.64636084  0.87934241  0.05325693     0.06200
C955        C  0.64624631  0.88859805  0.07723750    -0.30800
O956        O  0.60299622  0.96445074  0.09539685    -0.22600
C957        C  0.58974001  0.97704438  0.07889327    -0.02600
C958        C  0.58324574  0.96302784  0.05834522    -0.17100
H959        H  0.59181168  0.92122761  0.02751976     0.20900
H960        H  0.63215063  0.92626464  0.11096629     0.19300
H961        H  0.66071504  0.88691256  0.09098118     0.19200
H962        H  0.57487517  0.96939746  0.04128472     0.15100
C963        C  0.05001776  0.47829613  0.17291351     0.30600
C964        C  0.05927722  0.46200594  0.19088310    -0.35800
C965        C  0.04275961  0.45487539  0.20951343     0.16500
C966        C  0.01870506  0.46346483  0.21046335     0.22400
C967        C  0.00979281  0.48069376  0.19309422    -0.33900
C968        C  0.02627243  0.48758787  0.17424649     0.16400
O969        O  0.06052670  0.48279673  0.15141206    -0.25900
C970        C  0.04358196  0.49541619  0.13875337     0.06200
C971        C  0.02192261  0.49927448  0.15216133    -0.30800
O972        O  0.00468725  0.44968766  0.22482160    -0.22600
C973        C  0.01984973  0.43212758  0.23320058    -0.02600
C974        C  0.04395694  0.43490670  0.22489153    -0.17100
H975        H  0.07718554  0.45326036  0.18881926     0.20900
H976        H  0.99049175  0.48598799  0.19256341     0.19300
H977        H  0.00452849  0.50658985  0.14545285     0.19200
H978        H  0.05883956  0.42154591  0.22617502     0.15100
C979        C  0.13920168  0.42523488  0.02185521     0.30600
C980        C  0.11943161  0.44112422  0.01617857    -0.35800
C981        C  0.10414786  0.44776137  0.03608590     0.16500
C982        C  0.10789347  0.43896636  0.05980233     0.22400
C983        C  0.12748346  0.42290250  0.06539147    -0.33900
C984        C  0.14303920  0.41666394  0.04560932     0.16400
O985        O  0.15738948  0.41923769  0.00681907    -0.25900
C986        C  0.17343884  0.40720486  0.02115961     0.06200
C987        C  0.16517920  0.40455641  0.04540529    -0.30800
O988        O  0.09297499  0.44926951  0.07604323    -0.22600
C989        C  0.07952504  0.46493976  0.06267971    -0.02600
C990        C  0.08552032  0.46474951  0.03761294    -0.17100
H991        H  0.11706804  0.44894770  0.99787167     0.20900
H992        H  0.13120172  0.41691961  0.08415792     0.19300
H993        H  0.17499066  0.39674942  0.06103446     0.19200
H994        H  0.07831617  0.47645999  0.02303184     0.15100
C995        C  0.18048878  0.45904244  0.96074388     0.30600
C996        C  0.16584525  0.46645285  0.94067603    -0.35800
C997        C  0.14804513  0.48467394  0.94563210     0.16500
C998        C  0.14468840  0.49502658  0.96877801     0.22400
C999        C  0.16017341  0.48844297  0.98862893    -0.33900
C1000       C  0.17810256  0.47019005  0.98365208     0.16400
O1001       O  0.19437545  0.43894553  0.96142196    -0.25900
C1002       C  0.20115552  0.43714644  0.98501592     0.06200
C1003       C  0.19225114  0.45660852  0.99952638    -0.30800
O1004       O  0.12388350  0.50792130  0.97036284    -0.22600
C1005       C  0.11398927  0.50590238  0.94786177    -0.02600
C1006       C  0.12854788  0.49204061  0.93169785    -0.17100
H1007       H  0.16663253  0.45697310  0.92302586     0.20900
H1008       H  0.15695337  0.49531315  0.00719325     0.19300
H1009       H  0.19306597  0.45832790  0.01949478     0.19200
H1010       H  0.12395084  0.48580515  0.91320404     0.15100
C1011       C  0.04603885  0.47589572  0.85922717     0.30600
C1012       C  0.05324350  0.46850871  0.83533794    -0.35800
C1013       C  0.03744936  0.45193627  0.82331930     0.16500
C1014       C  0.01637984  0.44288918  0.83440754     0.22400
C1015       C  0.00914840  0.45031531  0.85826765    -0.33900
C1016       C  0.02452774  0.46746381  0.86996673     0.16400
O1017       O  0.05833879  0.49080316  0.87392353    -0.25900
C1018       C  0.04429763  0.49243902  0.89411376     0.06200
C1019       C  0.02283591  0.47849344  0.89267106    -0.30800
O1020       O  0.00311986  0.42948605  0.81916023    -0.22600
C1021       C  0.01541063  0.43035758  0.79780076    -0.02600
C1022       C  0.03731334  0.44358216  0.79941685    -0.17100
H1023       H  0.06969927  0.47566131  0.82653438     0.20900
H1024       H  0.99219301  0.44389314  0.86669185     0.19300
H1025       H  0.00894514  0.47566489  0.90681716     0.19200
H1026       H  0.04987084  0.44842380  0.78459711     0.15100
C1027       C  0.83363569  0.47127911  0.95082673     0.30600
C1028       C  0.81601308  0.45278249  0.94660764    -0.35800
C1029       C  0.79350940  0.45535085  0.95925328     0.16500
C1030       C  0.78848705  0.47503568  0.97468744     0.22400
C1031       C  0.80606652  0.49376001  0.97869804    -0.33900
C1032       C  0.82887174  0.49087941  0.96647031     0.16400
O1033       O  0.85624439  0.47170014  0.94177890    -0.25900
C1034       C  0.86643333  0.49165882  0.95188926     0.06200
C1035       C  0.85025098  0.50436543  0.96752731    -0.30800
O1036       O  0.76767926  0.47204147  0.98710018    -0.22600
C1037       C  0.75945929  0.44998560  0.97992484    -0.02600
C1038       C  0.77454325  0.43907113  0.96212420    -0.17100
H1039       H  0.82004656  0.43683683  0.93517439     0.20900
H1040       H  0.80268568  0.50880518  0.99147387     0.26500
H1041       H  0.85367815  0.52107349  0.97797195     0.19200
H1042       H  0.77327828  0.42055131  0.95467773     0.15100
C1043       C  0.93387289  0.46498173  0.86066184     0.30600
C1044       C  0.92921404  0.44681860  0.84270403    -0.35800
C1045       C  0.94270646  0.44864999  0.82059972     0.16500
C1046       C  0.95956613  0.46722886  0.81640671     0.22400
C1047       C  0.96410571  0.48555939  0.83434765    -0.33900
C1048       C  0.95083779  0.48349112  0.85664213     0.16400
O1049       O  0.92339608  0.46652081  0.88264673    -0.25900
C1050       C  0.93391787  0.48610088  0.89313550     0.06200
C1051       C  0.95135211  0.49733247  0.87787642    -0.30800
O1052       O  0.97277214  0.46327052  0.79622341    -0.22600
C1053       C  0.96433049  0.44188168  0.78734473    -0.02600
C1054       C  0.94521987  0.43224488  0.80152600    -0.17100
H1055       H  0.91658598  0.43174877  0.84611945     0.20900
H1056       H  0.97799799  0.49962970  0.83164451     0.19300
H1057       H  0.96208687  0.51375963  0.88152626     0.19200
H1058       H  0.93689106  0.41417123  0.79995583     0.15100
C1059       C  0.96783358  0.44418499  0.13312269     0.30600
C1060       C  0.98885044  0.43525871  0.14566542    -0.35800
C1061       C  0.98424727  0.42153360  0.16738042     0.16500
C1062       C  0.96073414  0.41720550  0.17629083     0.22400
C1063       C  0.93991331  0.42542002  0.16344771    -0.33900
C1064       C  0.94446800  0.43880670  0.14180230     0.16400
O1065       O  0.96730699  0.45865400  0.11323671    -0.25900
C1066       C  0.94319782  0.46207297  0.10924219     0.06200
C1067       C  0.92839581  0.45002624  0.12641584    -0.30800
O1068       O  0.96061439  0.40655154  0.19824947    -0.22600
C1069       C  0.98439114  0.40396143  0.20366946    -0.02600
C1070       C  0.99992260  0.41213171  0.18469887    -0.17100
H1071       H  0.00740889  0.43944481  0.13951099     0.20900
H1072       H  0.92138796  0.42241262  0.17036028     0.19300
H1073       H  0.90843489  0.45017741  0.12783566     0.19200
H1074       H  0.01989419  0.41250309  0.18439404     0.15100
C1075       C  0.79057601  0.46605833  0.04496211     0.30600
C1076       C  0.80633335  0.48660536  0.04578234    -0.35800
C1077       C  0.83010563  0.48227044  0.05515640     0.16500
C1078       C  0.83738167  0.45947591  0.06402889     0.22400
C1079       C  0.82149867  0.43909088  0.06370209    -0.33900
C1080       C  0.79808446  0.44322018  0.05350379     0.16400
O1081       O  0.76929047  0.46504330  0.03324193    -0.25900
C1082       C  0.76336272  0.44123327  0.03368403     0.06200
C1083       C  0.78029744  0.42685622  0.04664690    -0.30800
O1084       O  0.86078545  0.45897431  0.07037993    -0.22600
C1085       C  0.86884056  0.48157466  0.06521820    -0.02600
C1086       C  0.85056526  0.49701041  0.05572960    -0.17100
H1087       H  0.80101403  0.50426981  0.03804039     0.20900
H1088       H  0.82758575  0.42090055  0.06943217     0.19300
H1089       H  0.78071722  0.40694709  0.04846464     0.19200
H1090       H  0.85224464  0.51597835  0.04966018     0.15100
C1091       C  0.02032998  0.72405143  0.22068935     0.30600
C1092       C  0.01497585  0.70575729  0.20299912    -0.35800
C1093       C  0.02971412  0.70576086  0.18161139     0.16500
C1094       C  0.04881855  0.72224659  0.17835085     0.22400
C1095       C  0.05458404  0.74005216  0.19623480    -0.33900
C1096       C  0.03954265  0.74042386  0.21729953     0.16400
O1097       O  0.00563864  0.73082358  0.23896290    -0.25900
C1098       C  0.01552378  0.75173318  0.24732790     0.06200
C1099       C  0.03695839  0.75829294  0.23489147    -0.30800
O1100       O  0.05843862  0.72102256  0.15607496    -0.22600
C1101       C  0.04531588  0.70371990  0.14466213    -0.02600
C1102       C  0.02718478  0.69336498  0.15964896    -0.17100
H1103       H  0.99900055  0.69392372  0.20473271     0.20900
H1104       H  0.06848803  0.75399712  0.19296094     0.19300
H1105       H  0.04686019  0.77558639  0.23609996     0.19200
H1106       H  0.01345176  0.67974728  0.15471964     0.15100
C1107       C  0.13098838  0.73661048  0.07691949     0.30600
C1108       C  0.14959708  0.75262412  0.08486223    -0.35800
C1109       C  0.16643636  0.76014615  0.06678886     0.16500
C1110       C  0.16516124  0.75218678  0.04252033     0.22400
C1111       C  0.14677023  0.73559335  0.03467981    -0.33900
C1112       C  0.12960447  0.72836886  0.05277147     0.16400
O1113       O  0.11222719  0.72938710  0.09038815    -0.25900
C1114       C  0.09839960  0.71634090  0.07488085     0.06200
C1115       C  0.10823164  0.71495839  0.05105986    -0.30800
O1116       O  0.17969402  0.76507777  0.02786097    -0.22600
C1117       C  0.19039774  0.78139799  0.04290423    -0.02600
C1118       C  0.18319627  0.77883646  0.06743722    -0.17100
H1119       H  0.14987361  0.76004412  0.10348802     0.20900
H1120       H  0.14478291  0.73035004  0.01543186     0.19300
H1121       H  0.10049999  0.70607128  0.03487186     0.19200
H1122       H  0.18691395  0.79125578  0.08270126     0.15100
C1123       C  0.96586746  0.75700721  0.19365022     0.30600
C1124       C  0.97213091  0.74671087  0.17059542    -0.35800
C1125       C  0.95243384  0.73740356  0.15663386     0.16500
C1126       C  0.92822275  0.73881707  0.16459287     0.22400
C1127       C  0.92196699  0.74930320  0.18754973    -0.33900
C1128       C  0.94172386  0.75803511  0.20177551     0.16400
O1129       O  0.98154436  0.76450334  0.21061552    -0.25900
C1130       C  0.96745302  0.76986411  0.23014645     0.06200
C1131       C  0.94239087  0.76668929  0.22551150    -0.30800
O1132       O  0.91281284  0.72824494  0.14907410    -0.22600
C1133       C  0.92728601  0.71967218  0.13105364    -0.02600
C1134       C  0.95218358  0.72477849  0.13473252    -0.17100
H1135       H  0.99112831  0.74507960  0.16449914     0.20900
H1136       H  0.90312266  0.74967687  0.19427260     0.19300
H1137       H  0.92708327  0.76894092  0.23823815     0.19200
H1138       H  0.96774588  0.71971785  0.12315738     0.15100
C1139       C  0.82087254  0.71672016  0.08705443     0.30600
C1140       C  0.80267459  0.73353720  0.09480300    -0.35800
C1141       C  0.78468639  0.73979259  0.07724018     0.16500
C1142       C  0.78423849  0.72954454  0.05380371     0.22400
C1143       C  0.80192800  0.71192255  0.04639205    -0.33900
C1144       C  0.82040096  0.70623999  0.06374315     0.16400
O1145       O  0.84181247  0.71252546  0.09866580    -0.25900
C1146       C  0.85507583  0.69916043  0.08277721     0.06200
C1147       C  0.84260476  0.69439750  0.06074034    -0.30800
O1148       O  0.76969460  0.74193840  0.03864291    -0.22600
C1149       C  0.76097965  0.76049845  0.05235803    -0.02600
C1150       C  0.76911966  0.75966956  0.07673753    -0.17100
H1151       H  0.80409586  0.74318335  0.11231485     0.20900
H1152       H  0.80289728  0.70535453  0.02746964     0.19300
H1153       H  0.84982185  0.68590802  0.04406084     0.19200
H1154       H  0.76706628  0.77382535  0.09077304     0.15100
C1155       C  0.92735848  0.73513329  0.86069638     0.30600
C1156       C  0.92424872  0.75393280  0.84317484    -0.35800
C1157       C  0.93464370  0.74965748  0.81984831     0.16500
C1158       C  0.94697958  0.72811078  0.81394011     0.22400
C1159       C  0.94975003  0.70897360  0.83147794    -0.33900
C1160       C  0.93979427  0.71353462  0.85515916     0.16400
O1161       O  0.92048652  0.73636183  0.88399081    -0.25900
C1162       C  0.92864705  0.71540755  0.89390012     0.06200
C1163       C  0.94095955  0.70034549  0.87686077    -0.30800
O1164       O  0.95861874  0.72978578  0.79248784    -0.22600
C1165       C  0.95403684  0.75278952  0.78485424    -0.02600
C1166       C  0.93862025  0.76569555  0.80087537    -0.17100
H1167       H  0.91557834  0.77135887  0.84790871     0.20900
H1168       H  0.96024904  0.69240909  0.82741957     0.19300
H1169       H  0.94967687  0.68260060  0.88004500     0.19200
H1170       H  0.93396593  0.78515319  0.80033901     0.15100
C1171       C  0.85365581  0.76044959  0.97178643     0.30600
C1172       C  0.83262464  0.77476058  0.96641169    -0.35800
C1173       C  0.81644047  0.77906458  0.98626443     0.16500
C1174       C  0.82099253  0.77035336  0.00982854     0.22400
C1175       C  0.84210401  0.75627056  0.01526749    -0.33900
C1176       C  0.85801387  0.75152562  0.99534215     0.16400
O1177       O  0.86994537  0.75225348  0.95558219    -0.25900
C1178       C  0.88486008  0.73781022  0.96887092     0.06200
C1179       C  0.87838303  0.73671922  0.99377774    -0.30800
O1180       O  0.80276228  0.77515588  0.02521202    -0.22600
C1181       C  0.78590210  0.78655611  0.01133777    -0.02600
C1182       C  0.79365443  0.78992575  0.98696904    -0.17100
H1183       H  0.82859025  0.78108482  0.94782305     0.20900
H1184       H  0.84530173  0.74860752  0.03350983     0.19300
H1185       H  0.88667625  0.72566366  0.00828922     0.19200
H1186       H  0.78351463  0.79809669  0.97174095     0.15100
C1187       C  0.12845195  0.79651645  0.01104219     0.30600
C1188       C  0.10883214  0.78107047  0.01824100    -0.35800
C1189       C  0.09468559  0.77099431  0.99894403     0.16500
C1190       C  0.09904282  0.77676399  0.97443969     0.22400
C1191       C  0.11813140  0.79264732  0.96731678    -0.33900
C1192       C  0.13276889  0.80195234  0.98645633     0.16400
O1193       O  0.14667806  0.80386298  0.02539999    -0.25900
C1194       C  0.16303013  0.81373611  0.00980908     0.06200
C1195       C  0.15500431  0.81363113  0.98539444    -0.30800
O1196       O  0.08526502  0.76393917  0.95922246    -0.22600
C1197       C  0.07195056  0.74943429  0.97389666    -0.02600
C1198       C  0.07693210  0.75296049  0.99896278    -0.17100
H1199       H  0.10610268  0.77570149  0.03735409     0.20900
H1200       H  0.12242843  0.79598074  0.94801824     0.19300
H1201       H  0.16536917  0.81859908  0.96899182     0.19200
H1202       H  0.06941144  0.74308017  0.01465951     0.15100
C1203       C  0.03551406  0.74099334  0.86620156     0.30600
C1204       C  0.03717265  0.76033227  0.84912745    -0.35800
C1205       C  0.02671029  0.75589189  0.82594665     0.16500
C1206       C  0.01592109  0.73369132  0.81976887     0.22400
C1207       C  0.01468599  0.71408814  0.83678787    -0.33900
C1208       C  0.02451970  0.71879299  0.86034013     0.16400
O1209       O  0.04207943  0.74224379  0.88949902    -0.25900
C1210       C  0.03513840  0.72071652  0.89897240     0.06200
C1211       C  0.02404608  0.70520291  0.88172164    -0.30800
O1212       O  0.00460574  0.73469956  0.79823560    -0.22600
C1213       C  0.00768748  0.75791548  0.79085403    -0.02600
C1214       C  0.02184676  0.77179003  0.80709932    -0.17100
H1215       H  0.04472234  0.77813912  0.85411595     0.20900
H1216       H  0.00539367  0.69697359  0.83246067     0.19300
H1217       H  0.01621040  0.68707656  0.88464464     0.19200
H1218       H  0.02580863  0.79135891  0.80632399     0.15100
loop_ 
_geom_bond_atom_site_label_1 
_geom_bond_atom_site_label_2 
_geom_bond_distance 
_geom_bond_site_symmetry_2 
_ccdc_geom_bond_type 
C1            N2   1.346       .  A
C1            N6   1.362       .  A
C1         C1197   1.469       .  S
N2            C3   1.346       .  A
C3            N4   1.360       .  A
C3         C1210   1.464       .  S
N4            C5   1.367       .  A
C5            N6   1.369       .  A
C5           C51   1.472       .  S
C7            N8   1.358       .  A
C7           N12   1.352       .  A
C7         C1178   1.470       .  S
N8            C9   1.361       .  A
C9           N10   1.367       .  A
C9           C57   1.471       .  S
N10          C11   1.363       .  A
C11          N12   1.354       .  A
C11        C1162   1.474       .  S
C13          N14   1.352       .  A
C13          N18   1.360       .  A
C13        C1133   1.468       .  S
N14          C15   1.353       .  A
C15          N16   1.361       .  A
C15        C1146   1.472       .  S
N16          C17   1.365       .  A
C17          N18   1.362       .  A
C17          C74   1.469       .  S
C19          N20   1.360       .  A
C19          N24   1.347       .  A
C19        C1101   1.466       .  S
N20          C21   1.366       .  A
C21          N22   1.366       .  A
C21          C80   1.464       .  S
N22          C23   1.360       .  A
C23          N24   1.348       .  A
C23        C1114   1.466       .  S
C25          N26   1.350       .  A
C25          N30   1.363       .  A
C25        C1066   1.476       .  S
N26          C27   1.345       .  A
C27          N28   1.359       .  A
C27        C1085   1.466       .  S
N28          C29   1.366       .  A
C29          N30   1.370       .  A
C29          C77   1.472       .  S
C31          N32   1.364       .  A
C31          N36   1.354       .  A
C31        C1034   1.480       .  S
N32          C33   1.368       .  A
C33          N34   1.365       .  A
C33          C54   1.479       .  S
N34          C35   1.363       .  A
C35          N36   1.354       .  A
C35        C1050   1.476       .  S
C37          N38   1.362       .  A
C37          N42   1.352       .  A
C37        C1005   1.476       .  S
N38          C39   1.367       .  A
C39          N40   1.364       .  A
C39          C60   1.471       .  S
N40          C41   1.360       .  A
C41          N42   1.349       .  A
C41        C1018   1.465       .  S
C43          N44   1.352       .  A
C43          N48   1.363       .  A
C43         C970   1.473       .  S
N44          C45   1.352       .  A
C45          N46   1.357       .  A
C45         C989   1.464       .  S
N46          C47   1.359       .  A
C47          N48   1.368       .  A
C47          C71   1.469       .  S
O49         Zr61   2.462       .  S
O49          C51   1.291       .  A
O50         Zr87   2.429   1_456  S
O50          C51   1.286       .  A
O52         Zr64   2.454       .  S
O52          C54   1.289       .  A
O53         Zr88   2.453   1_556  S
O53          C54   1.292       .  A
O55         Zr64   2.450       .  S
O55          C57   1.288       .  A
O56         Zr87   2.437   1_556  S
O56          C57   1.289       .  A
O58         Zr61   2.443       .  S
O58          C60   1.287       .  A
O59         Zr88   2.448   1_456  S
O59          C60   1.290       .  A
Zr61         O62   2.436       .  S
Zr61         O63   2.436       .  S
Zr61         O67   2.366   1_455  S
Zr61         O68   2.381   1_455  S
Zr61         O91   2.376   1_556  S
Zr61         O93   2.369   1_556  S
O62         H105   0.990       .  S
O63         H104   0.990       .  S
O63         H108   0.990       .  S
Zr64         O65   2.436       .  S
Zr64         O66   2.437       .  S
Zr64         O68   2.377       .  S
Zr64         O67   2.369       .  S
Zr64         O92   2.373   1_556  S
Zr64         O94   2.372   1_556  S
O65         H106   0.990       .  S
O65         H109   0.990       .  S
O66          H99   0.990       .  S
O67         Zr87   2.387   1_556  S
O68         Zr88   2.395   1_556  S
O68          H95   0.965       .  S
O69         Zr81   2.434       .  S
O69          C71   1.285       .  A
O70         Zr88   2.453   1_455  S
O70          C71   1.292       .  A
O72         Zr84   2.445       .  S
O72          C74   1.287       .  A
O73         Zr87   2.440       .  S
O73          C74   1.289       .  A
O75         Zr84   2.463       .  S
O75          C77   1.292       .  A
O76         Zr88   2.431       .  S
O76          C77   1.287       .  A
O78         Zr81   2.425       .  S
O78          C80   1.283       .  A
O79         Zr87   2.450   1_455  S
O79          C80   1.290       .  A
Zr81         O82   2.435       .  S
Zr81         O83   2.436       .  S
Zr81         O89   2.368   1_455  S
Zr81         O90   2.374   1_455  S
Zr81         O93   2.373       .  S
Zr81         O91   2.375       .  S
O82         H102   0.990       .  S
O82         H107   0.990       .  S
O83         H103   0.990       .  S
Zr84         O85   2.435       .  S
Zr84         O86   2.433       .  S
Zr84         O90   2.377       .  S
Zr84         O89   2.362       .  S
Zr84         O94   2.374       .  S
Zr84         O92   2.375       .  S
O85         H101   0.990       .  S
O86         H100   0.990       .  S
O86         H110   0.990       .  S
Zr87         O90   2.381       .  S
Zr87         O92   2.393       .  S
Zr87         O93   2.387   1_655  S
Zr88         O89   2.390       .  S
Zr88         O91   2.385   1_655  S
Zr88         O94   2.392       .  S
O89          H97   0.965       .  S
O92          H96   0.968       .  S
O93          H98   0.967       .  S
C111        N112   1.359       .  A
C111        N116   1.352       .  A
C111        C941   1.465       .  S
N112        C113   1.361       .  A
C113        N114   1.365       .  A
C113        C161   1.471       .  S
N114        C115   1.361       .  A
C115        N116   1.351       .  A
C115        C957   1.469   1_545  S
C117        N118   1.359       .  A
C117        N122   1.349       .  A
C117        C925   1.469       .  S
N118        C119   1.364       .  A
C119        N120   1.367       .  A
C119        C167   1.471       .  S
N120        C121   1.362       .  A
C121        N122   1.352       .  A
C121        C906   1.473   1_545  S
C123        N124   1.363       .  A
C123        N128   1.350       .  A
C123        C874   1.472       .  S
N124        C125   1.368       .  A
C125        N126   1.366       .  A
C125        C184   1.475       .  S
N126        C127   1.361       .  A
C127        N128   1.349       .  A
C127        C890   1.471       .  S
C129        N130   1.355       .  A
C129        N134   1.364       .  A
C129        C842   1.477       .  S
N130        C131   1.354       .  A
C131        N132   1.357       .  A
C131        C858   1.473       .  S
N132        C133   1.362       .  A
C133        N134   1.367       .  A
C133        C190   1.471       .  S
C135        N136   1.354       .  A
C135        N140   1.360       .  A
C135        C810   1.472       .  S
N136        C137   1.354       .  A
C137        N138   1.360       .  A
C137        C826   1.472       .  S
N138        C139   1.363       .  A
C139        N140   1.363       .  A
C139        C187   1.468       .  S
C141        N142   1.352       .  A
C141        N146   1.355       .  A
C141        C778   1.463       .  S
N142        C143   1.354       .  A
C143        N144   1.364       .  A
C143        C797   1.477       .  S
N144        C145   1.367       .  A
C145        N146   1.361       .  A
C145        C164   1.468       .  S
C147        N148   1.352       .  A
C147        N152   1.360       .  A
C147        C749   1.468       .  S
N148        C149   1.352       .  A
C149        N150   1.362       .  A
C149        C765   1.473   1_545  S
N150        C151   1.366       .  A
C151        N152   1.363       .  A
C151        C170   1.471       .  S
C153        N154   1.353       .  A
C153        N158   1.361       .  A
C153        C730   1.474       .  S
N154        C155   1.356       .  A
C155        N156   1.359       .  A
C155        C714   1.472       .  S
N156        C157   1.363       .  A
C157        N158   1.364       .  A
C157        C181   1.469       .  S
O159       Zr171   2.433       .  S
O159        C161   1.286       .  A
O160       Zr197   2.451       .  S
O160        C161   1.291       .  A
O162       Zr174   2.450       .  S
O162        C164   1.290       .  A
O163       Zr198   2.430   1_556  S
O163        C164   1.286       .  A
O165       Zr174   2.444       .  S
O165        C167   1.288       .  A
O166       Zr197   2.445   1_556  S
O166        C167   1.290       .  A
O168       Zr171   2.446       .  S
O168        C170   1.287       .  A
O169       Zr198   2.444       .  S
O169        C170   1.289       .  A
Zr171       O172   2.437       .  S
Zr171       O173   2.435       .  S
Zr171       O177   2.368       .  S
Zr171       O178   2.371       .  S
Zr171       O201   2.373       .  S
Zr171       O203   2.375       .  S
O172        H215   0.990       .  S
O173        H214   0.990       .  S
O173        H218   0.990       .  S
Zr174       O175   2.435       .  S
Zr174       O176   2.435       .  S
Zr174       O178   2.371   1_556  S
Zr174       O177   2.368   1_556  S
Zr174       O202   2.371       .  S
Zr174       O204   2.367       .  S
O175        H216   0.990       .  S
O175        H219   0.990       .  S
O176        H209   0.990       .  S
O177       Zr197   2.382       .  S
O178       Zr198   2.388       .  S
O178        H205   0.967       .  S
O179       Zr191   2.454       .  S
O179        C181   1.290       .  A
O180       Zr198   2.432       .  S
O180        C181   1.287       .  A
O182       Zr194   2.451       .  S
O182        C184   1.289       .  A
O183       Zr197   2.446   1_556  S
O183        C184   1.290       .  A
O185       Zr194   2.443       .  S
O185        C187   1.288       .  A
O186       Zr198   2.437   1_556  S
O186        C187   1.288       .  A
O188       Zr191   2.444       .  S
O188        C190   1.288       .  A
O189       Zr197   2.444       .  S
O189        C190   1.289       .  A
Zr191       O192   2.437       .  S
Zr191       O193   2.434       .  S
Zr191       O199   2.369       .  S
Zr191       O200   2.373       .  S
Zr191       O203   2.376       .  S
Zr191       O201   2.375       .  S
O192        H212   0.990       .  S
O192        H217   0.990       .  S
O193        H213   0.990       .  S
Zr194       O195   2.435       .  S
Zr194       O196   2.436       .  S
Zr194       O200   2.369   1_556  S
Zr194       O199   2.374   1_556  S
Zr194       O204   2.373       .  S
Zr194       O202   2.373       .  S
O195        H211   0.990   1_556  S
O196        H210   0.990       .  S
O196        H220   0.990       .  S
Zr197       O200   2.387       .  S
Zr197       O202   2.391   1_554  S
Zr197       O203   2.393       .  S
Zr198       O199   2.390       .  S
Zr198       O201   2.386       .  S
Zr198       O204   2.386   1_554  S
O199        H207   0.967       .  S
O202        H206   0.967       .  S
O203        H208   0.967       .  S
C221        N222   1.359       .  A
C221        N226   1.351       .  A
C221        C685   1.466       .  S
N222        C223   1.365       .  A
C223        N224   1.364       .  A
C223        C277   1.469       .  S
N224        C225   1.362       .  A
C225        N226   1.351       .  A
C225        C698   1.468   1_545  S
C227        N228   1.345       .  A
C227        N232   1.360       .  A
C227        C666   1.463       .  S
N228        C229   1.349   1_545  A
C229        N230   1.364   1_565  A
C229        C650   1.469       .  S
N230        C231   1.369       .  A
C231        N232   1.365       .  A
C231        C271   1.475       .  S
C233        N234   1.363       .  A
C233        N238   1.352       .  A
C233        C618   1.470       .  S
N234        C235   1.367       .  A
C235        N236   1.361       .  A
C235        C300   1.470       .  S
N236        C237   1.358       .  A
C237        N238   1.352       .  A
C237        C634   1.464       .  S
C239        N240   1.362       .  A
C239        N244   1.351       .  A
C239        C589   1.475       .  S
N240        C241   1.369       .  A
C241        N242   1.368       .  A
C241        C294   1.478       .  S
N242        C243   1.361       .  A
C243        N244   1.352       .  A
C243        C602   1.479       .  S
C245        N246   1.359       .  A
C245        N250   1.351       .  A
C245        C554   1.467       .  S
N246        C247   1.362       .  A
C247        N248   1.367       .  A
C247        C291   1.473       .  S
N248        C249   1.363       .  A
C249        N250   1.353       .  A
C249        C570   1.471       .  S
C251        N252   1.348       .  A
C251        N256   1.364       .  A
C251        C525   1.470       .  S
N252        C253   1.347       .  A
C253        N254   1.361       .  A
C253        C541   1.467   1_545  S
N254        C255   1.366       .  A
C255        N256   1.369       .  A
C255        C280   1.477       .  S
C257        N258   1.347       .  A
C257        N262   1.356       .  A
C257        C490   1.461       .  S
N258        C259   1.346       .  A
C259        N260   1.364       .  A
C259        C509   1.472   1_545  S
N260        C261   1.372       .  A
C261        N262   1.363       .  A
C261        C274   1.468       .  S
C263        N264   1.351       .  A
C263        N268   1.360       .  A
C263        C458   1.468       .  S
N264        C265   1.352       .  A
C265        N266   1.363       .  A
C265        C474   1.474       .  S
N266        C267   1.367       .  A
C267        N268   1.363       .  A
C267        C297   1.471       .  S
O269       Zr281   2.452       .  S
O269        C271   1.289       .  A
O270       Zr307   2.448       .  S
O270        C271   1.291       .  A
O272       Zr284   2.454       .  S
O272        C274   1.289       .  A
O273       Zr308   2.440   1_455  S
O273        C274   1.289       .  A
O275       Zr284   2.439       .  S
O275        C277   1.287       .  A
O276       Zr307   2.447   1_455  S
O276        C277   1.290       .  A
O278       Zr281   2.471       .  S
O278        C280   1.293       .  A
O279       Zr308   2.433       .  S
O279        C280   1.288       .  A
Zr281       O282   2.434       .  S
Zr281       O283   2.436       .  S
Zr281       O287   2.377       .  S
Zr281       O288   2.356       .  S
Zr281       O311   2.371       .  S
Zr281       O313   2.385       .  S
O282        H325   0.990       .  S
O283        H324   0.990       .  S
O283        H328   0.990       .  S
Zr284       O285   2.436       .  S
Zr284       O286   2.435       .  S
Zr284       O288   2.371   1_455  S
Zr284       O287   2.377   1_455  S
Zr284       O312   2.374       .  S
Zr284       O314   2.371       .  S
O285        H326   0.990       .  S
O285        H329   0.990       .  S
O286        H319   0.990       .  S
O287       Zr307   2.391       .  S
O288       Zr308   2.391       .  S
O288        H315   0.965       .  S
O289       Zr301   2.447       .  S
O289        C291   1.288       .  A
O290       Zr308   2.441       .  S
O290        C291   1.289       .  A
O292       Zr304   2.453       .  S
O292        C294   1.289       .  A
O293       Zr307   2.445   1_455  S
O293        C294   1.290       .  A
O295       Zr304   2.440       .  S
O295        C297   1.286       .  A
O296       Zr308   2.451   1_455  S
O296        C297   1.291       .  A
O298       Zr301   2.440       .  S
O298        C300   1.286       .  A
O299       Zr307   2.449       .  S
O299        C300   1.291       .  A
Zr301       O302   2.436       .  S
Zr301       O303   2.434       .  S
Zr301       O309   2.377       .  S
Zr301       O310   2.368       .  S
Zr301       O313   2.383       .  S
Zr301       O311   2.367       .  S
O302        H322   0.990       .  S
O302        H327   0.990       .  S
O303        H323   0.990       .  S
Zr304       O305   2.435       .  S
Zr304       O306   2.435       .  S
Zr304       O310   2.364   1_455  S
Zr304       O309   2.379   1_455  S
Zr304       O314   2.380       .  S
Zr304       O312   2.368       .  S
O305        H321   0.990       .  S
O306        H320   0.990       .  S
O306        H330   0.990       .  S
Zr307       O310   2.381       .  S
Zr307       O312   2.390   1_655  S
Zr307       O313   2.399       .  S
Zr308       O309   2.391       .  S
Zr308       O311   2.383       .  S
Zr308       O314   2.387   1_655  S
O309        H317   0.966       .  S
O312        H316   0.966       .  S
O313        H318   0.965       .  S
C331        S332   1.800   1_455  S
C331        S335   1.799       .  S
C331        C339   1.352       .  D
S332        C333   1.793       .  S
C333        C334   1.348   1_655  D
C333        C557   1.484       .  S
C334        S335   1.793       .  S
C334        C461   1.478       .  S
C336        S340   1.794       .  S
C336        C337   1.348   1_455  D
C336        C973   1.481       .  S
C337        S338   1.791       .  S
C337       C1069   1.485       .  S
S338        C339   1.799   1_655  S
C339        S340   1.802       .  S
C341        S342   1.793       .  S
C341        S345   1.806       .  S
C341        C349   1.351       .  D
S342        C343   1.779       .  S
C343        C344   1.347       .  D
C343        C493   1.474       .  S
C344        S345   1.799       .  S
C344        C477   1.487       .  S
C346        S350   1.797       .  S
C346        C347   1.349       .  D
C346        C717   1.479       .  S
C347        S348   1.785       .  S
C347        C746   1.482       .  S
S348        C349   1.799       .  S
C349        S350   1.798       .  S
C351        S352   1.800       .  S
C351        S355   1.803   1_554  S
C351        C359   1.357       .  D
S352        C353   1.797       .  S
C353        C354   1.351   1_554  D
C353        C986   1.487       .  S
C354        S355   1.798       .  S
C354       C1002   1.487       .  S
C356        S360   1.799       .  S
C356        C357   1.352   1_556  D
C356        C813   1.482       .  S
C357        S358   1.799       .  S
C357        C733   1.494       .  S
S358        C359   1.801       .  S
C359        S360   1.800   1_554  S
C361        S362   1.803       .  S
C361        S365   1.793       .  S
C361        C369   1.353       .  D
S362        C363   1.800       .  S
C363        C364   1.350       .  D
C363        C861   1.485       .  S
C364        S365   1.787       .  S
C364        C938   1.480       .  S
C366        S370   1.788       .  S
C366        C367   1.348       .  D
C366        C522   1.486       .  S
C367        S368   1.797       .  S
C367        C573   1.479       .  S
S368        C369   1.800       .  S
C369        S370   1.801       .  S
C371        S372   1.799       .  S
C371        S375   1.800   1_655  S
C371        C379   1.352       .  D
S372        C373   1.791       .  S
C373        C374   1.348       .  D
C373        C538   1.479       .  S
C374        S375   1.794   1_655  S
C374        C506   1.481   1_655  S
C376        S380   1.794       .  S
C376        C377   1.348   1_455  D
C376       C1098   1.478       .  S
C377        S378   1.792       .  S
C377       C1130   1.488       .  S
S378        C379   1.798       .  S
C379        S380   1.800   1_655  S
C381        S382   1.797       .  S
C381        S385   1.801       .  S
C381        C389   1.352       .  D
S382        C383   1.791       .  S
C383        C384   1.350       .  D
C383        C682   1.473       .  S
C384        S385   1.794       .  S
C384        C605   1.492       .  S
C386        S390   1.793       .  S
C386        C387   1.348       .  D
C386        C829   1.485       .  S
C387        S388   1.793       .  S
C387        C781   1.480       .  S
S388        C389   1.801       .  S
C389        S390   1.799       .  S
C391        S392   1.805       .  S
C391        S395   1.802   1_655  S
C391        C399   1.357       .  D
S392        C393   1.796       .  S
C393        C394   1.348   1_655  D
C393       C1053   1.488       .  S
C394        S395   1.796       .  S
C394       C1021   1.484       .  S
C396        S400   1.798       .  S
C396        C397   1.346   1_455  D
C396        C586   1.484       .  S
C397        S398   1.796       .  S
C397        C621   1.481       .  S
S398        C399   1.801       .  S
C399        S400   1.804   1_655  S
C401        S402   1.801       .  S
C401        S405   1.803       .  S
C401        C409   1.356       .  D
S402        C403   1.793       .  S
C403        C404   1.349       .  D
C403        C794   1.486       .  S
C404        S405   1.799       .  S
C404        C762   1.484       .  S
C406        S410   1.796       .  S
C406        C407   1.347       .  D
C406       C1117   1.480       .  S
C407        S408   1.794       .  S
C407       C1194   1.488       .  S
S408        C409   1.802       .  S
C409        S410   1.802       .  S
C411        S412   1.803       .  S
C411        S415   1.802   1_554  S
C411        C419   1.356       .  D
S412        C413   1.792       .  S
C413        C414   1.348   1_554  D
C413        C845   1.490       .  S
C414        S415   1.799       .  S
C414        C877   1.482       .  S
C416        S420   1.804       .  S
C416        C417   1.352   1_556  D
C416       C1037   1.491       .  S
C417        S418   1.795       .  S
C417       C1082   1.482       .  S
S418        C419   1.796       .  S
C419        S420   1.801   1_554  S
C421        S422   1.796       .  S
C421        S425   1.806   1_655  S
C421        C429   1.352       .  D
S422        C423   1.792       .  S
C423        C424   1.348       .  D
C423        C653   1.478       .  S
C424        S425   1.791   1_655  S
C424        C701   1.488   1_655  S
C426        S430   1.793   1_655  S
C426        C427   1.351       .  D
C426       C1213   1.478   1_655  S
C427        S428   1.799       .  S
C427       C1165   1.487       .  S
S428        C429   1.802       .  S
C429        S430   1.791   1_655  S
C431        S432   1.797       .  S
C431        S435   1.805       .  S
C431        C439   1.350       .  D
S432        C433   1.783       .  S
C433        C434   1.348       .  D
C433        C637   1.478       .  S
C434        S435   1.794       .  S
C434        C669   1.487       .  S
C436        S440   1.795       .  S
C436        C437   1.349       .  D
C436        C922   1.478       .  S
C437        S438   1.792       .  S
C437        C893   1.492       .  S
S438        C439   1.800       .  S
C439        S440   1.796       .  S
C441        S442   1.801       .  S
C441        S445   1.800       .  S
C441        C449   1.352       .  D
S442        C443   1.788       .  S
C443        C444   1.347       .  D
C443        C909   1.483       .  S
C444        S445   1.794       .  S
C444        C954   1.477       .  S
C446        S450   1.796       .  S
C446        C447   1.351       .  D
C446       C1149   1.482       .  S
C447        S448   1.792       .  S
C447       C1181   1.488       .  S
S448        C449   1.796       .  S
C449        S450   1.800       .  S
C451        C456   1.380       .  A
C451        C452   1.401       .  A
C451        O457   1.314       .  A
C452        C453   1.400       .  A
C452        H463   1.082       .  S
C453        C462   1.362       .  A
C453        C454   1.381       .  A
C454        C455   1.405       .  A
C454        O460   1.317       .  A
C455        C456   1.402       .  A
C455        H464   1.082       .  S
C456        C459   1.367       .  A
O457        C458   1.330       .  A
C458        C459   1.391       .  A
C459        H465   1.082       .  S
O460        C461   1.332       .  A
C461        C462   1.388       .  A
C462        H466   1.083       .  S
C467        C472   1.379       .  A
C467        C468   1.404       .  A
C467        O473   1.315       .  A
C468        C469   1.402       .  A
C468        H479   1.082       .  S
C469        C478   1.367       .  A
C469        C470   1.380       .  A
C470        C471   1.408       .  A
C470        O476   1.317       .  A
C471        C472   1.404       .  A
C471        H480   1.082       .  S
C472        C475   1.370       .  A
O473        C474   1.331       .  A
C474        C475   1.392       .  A
C475        H481   1.082       .  S
O476        C477   1.334       .  A
C477        C478   1.390       .  A
C478        H482   1.082       .  S
C483        C488   1.381       .  A
C483        C484   1.402       .  A
C483        O489   1.322       .  A
C484        C485   1.404       .  A
C484        H495   1.082       .  S
C485        C494   1.356       .  A
C485        C486   1.382       .  A
C486        C487   1.394       .  A
C486        O492   1.315       .  A
C487        C488   1.395       .  A
C487        H496   1.083       .  S
C488        C491   1.347       .  A
O489        C490   1.330       .  A
C490        C491   1.388       .  A
C491        H497   1.083       .  S
O492        C493   1.325       .  A
C493        C494   1.394       .  A
C494        H498   1.082       .  S
C499        C504   1.379       .  A
C499        C500   1.411       .  A
C499        O505   1.321       .  A
C500        C501   1.407       .  A
C500        H511   1.082       .  S
C501        C510   1.375       .  A
C501        C502   1.379       .  A
C502        C503   1.399       .  A
C502        O508   1.310       .  A
C503        C504   1.396       .  A
C503        H512   1.083       .  S
C504        C507   1.360       .  A
O505        C506   1.334       .  A
C506        C507   1.387       .  A
C507        H513   1.083       .  S
O508        C509   1.329       .  A
C509        C510   1.395       .  A
C510        H514   1.082       .  S
C515        C520   1.379       .  A
C515        C516   1.406       .  A
C515        O521   1.316       .  A
C516        C517   1.403       .  A
C516        H527   1.082       .  S
C517        C526   1.370       .  A
C517        C518   1.380       .  A
C518        C519   1.403       .  A
C518        O524   1.312       .  A
C519        C520   1.399       .  A
C519        H528   1.083       .  S
C520        C523   1.364       .  A
O521        C522   1.332       .  A
C522        C523   1.390       .  A
C523        H529   1.082       .  S
O524        C525   1.331       .  A
C525        C526   1.392       .  A
C526        H530   1.082       .  S
C531        C536   1.379       .  A
C531        C532   1.404       .  A
C531        O537   1.314       .  A
C532        C533   1.401       .  A
C532        H543   1.082       .  S
C533        C542   1.368       .  A
C533        C534   1.379       .  A
C534        C535   1.403       .  A
C534        O540   1.313       .  A
C535        C536   1.400       .  A
C535        H544   1.082       .  S
C536        C539   1.364       .  A
O537        C538   1.330       .  A
C538        C539   1.390       .  A
C539        H545   1.082       .  S
O540        C541   1.331       .  A
C541        C542   1.390       .  A
C542        H546   1.082       .  S
C547        C552   1.380       .  A
C547        C548   1.403       .  A
C547        O553   1.316       .  A
C548        C549   1.402       .  A
C548        H559   1.082       .  S
C549        C558   1.363       .  A
C549        C550   1.380       .  A
C550        C551   1.404       .  A
C550        O556   1.317       .  A
C551        C552   1.402       .  A
C551        H560   1.082   1_655  S
C552        C555   1.364       .  A
O553        C554   1.331       .  A
C554        C555   1.390       .  A
C555        H561   1.082       .  S
O556        C557   1.332       .  A
C557        C558   1.390       .  A
C558        H562   1.082       .  S
C563        C568   1.380       .  A
C563        C564   1.402       .  A
C563        O569   1.314       .  A
C564        C565   1.399       .  A
C564        H575   1.082       .  S
C565        C574   1.364       .  A
C565        C566   1.381       .  A
C566        C567   1.407       .  A
C566        O572   1.318       .  A
C567        C568   1.405       .  A
C567        H576   1.082       .  S
C568        C571   1.370       .  A
O569        C570   1.330       .  A
C570        C571   1.393       .  A
C571        H577   1.083       .  S
O572        C573   1.333       .  A
C573        C574   1.388       .  A
C574        H578   1.083       .  S
C579        C584   1.379       .  A
C579        C580   1.409       .  A
C579        O585   1.318       .  A
C580        C581   1.406       .  A
C580        H591   1.082       .  S
C581        C590   1.373       .  A
C581        C582   1.379       .  A
C582        C583   1.402       .  A
C582        O588   1.313       .  A
C583        C584   1.399       .  A
C583        H592   1.082       .  S
C584        C587   1.364       .  A
O585        C586   1.333       .  A
C586        C587   1.389       .  A
C587        H593   1.082       .  S
O588        C589   1.330       .  A
C589        C590   1.395       .  A
C590        H594   1.082       .  S
C595        C600   1.380       .  A
C595        C596   1.409       .  A
C595        O601   1.327       .  A
C596        C597   1.410       .  A
C596        H607   1.083       .  S
C597        C606   1.363       .  A
C597        C598   1.380       .  A
C598        C599   1.398       .  A
C598        O604   1.319       .  A
C599        C600   1.400       .  A
C599        H608   1.082       .  S
C600        C603   1.353       .  A
O601        C602   1.334       .  A
C602        C603   1.391       .  A
C603        H609   1.083       .  S
O604        C605   1.328       .  A
C605        C606   1.399       .  A
C606        H610   1.081       .  S
C611        C616   1.380       .  A
C611        C612   1.401       .  A
C611        O617   1.314       .  A
C612        C613   1.399       .  A
C612        H623   1.082       .  S
C613        C622   1.360       .  A
C613        C614   1.379       .  A
C614        C615   1.409       .  A
C614        O620   1.321       .  A
C615        C616   1.407       .  A
C615        H624   1.082       .  S
C616        C619   1.370       .  A
O617        C618   1.329       .  A
C618        C619   1.394       .  A
C619        H625   1.082       .  S
O620        C621   1.333       .  A
C621        C622   1.388       .  A
C622        H626   1.083       .  S
C627        C632   1.381       .  A
C627        C628   1.400       .  A
C627        O633   1.319       .  A
C628        C629   1.401       .  A
C628        H639   1.082       .  S
C629        C638   1.355       .  A
C629        C630   1.382       .  A
C630        C631   1.401       .  A
C630        O636   1.319       .  A
C631        C632   1.401       .  A
C631        H640   1.082       .  S
C632        C635   1.357       .  A
O633        C634   1.329       .  A
C634        C635   1.391       .  A
C635        H641   1.083       .  S
O636        C637   1.329       .  A
C637        C638   1.393       .  A
C638        H642   1.083       .  S
C643        C648   1.380       .  A
C643        C644   1.401       .  A
C643        O649   1.310       .  A
C644        C645   1.397       .  A
C644        H655   1.083       .  S
C645        C654   1.362       .  A
C645        C646   1.380       .  A
C646        C647   1.406       .  A
C646        O652   1.317       .  A
C647        C648   1.403       .  A
C647        H656   1.082       .  S
C648        C651   1.371       .  A
O649        C650   1.330       .  A
C650        C651   1.392       .  A
C651        H657   1.082       .  S
O652        C653   1.333       .  A
C653        C654   1.388       .  A
C654        H658   1.083       .  S
C659        C664   1.379       .  A
C659        C660   1.407       .  A
C659        O665   1.316       .  A
C660        C661   1.404       .  A
C660        H671   1.082       .  S
C661        C670   1.371       .  A
C661        C662   1.380       .  A
C662        C663   1.402       .  A
C662        O668   1.311       .  A
C663        C664   1.398       .  A
C663        H672   1.082       .  S
C664        C667   1.365       .  A
O665        C666   1.332       .  A
C666        C667   1.388       .  A
C667        H673   1.082       .  S
O668        C669   1.331       .  A
C669        C670   1.393       .  A
C670        H674   1.082       .  S
C675        C680   1.383       .  A
C675        C676   1.405       .  A
C675        O681   1.316       .  A
C676        C677   1.402       .  A
C676        H687   1.082       .  S
C677        C686   1.368       .  A
C677        C678   1.381       .  A
C678        C679   1.399       .  A
C678        O684   1.312       .  A
C679        C680   1.397       .  A
C679        H688   1.083       .  S
C680        C683   1.362       .  A
O681        C682   1.331       .  A
C682        C683   1.386       .  A
C683        H689   1.083       .  S
O684        C685   1.328       .  A
C685        C686   1.392       .  A
C686        H690   1.083       .  S
C691        C696   1.381       .  A
C691        C692   1.399       .  A
C691        O697   1.321       .  A
C692        C693   1.401       .  A
C692        H703   1.082   1_455  S
C693        C702   1.353   1_455  A
C693        C694   1.380       .  A
C694        C695   1.405       .  A
C694        O700   1.324       .  A
C695        C696   1.407       .  A
C695        H704   1.082       .  S
C696        C699   1.360       .  A
O697        C698   1.328       .  A
C698        C699   1.393       .  A
C699        H705   1.083       .  S
O700        C701   1.333       .  A
C701        C702   1.392   1_455  A
C702        H706   1.082       .  S
C707        C712   1.380       .  A
C707        C708   1.405       .  A
C707        O713   1.323       .  A
C708        C709   1.407       .  A
C708        H719   1.082       .  S
C709        C718   1.362       .  A
C709        C710   1.382       .  A
C710        C711   1.399       .  A
C710        O716   1.318       .  A
C711        C712   1.399       .  A
C711        H720   1.082       .  S
C712        C715   1.355       .  A
O713        C714   1.332       .  A
C714        C715   1.390       .  A
C715        H721   1.083       .  S
O716        C717   1.328       .  A
C717        C718   1.395       .  A
C718        H722   1.083       .  S
C723        C728   1.380       .  A
C723        C724   1.405       .  A
C723        O729   1.317       .  A
C724        C725   1.403       .  A
C724        H735   1.082       .  S
C725        C734   1.366       .  A
C725        C726   1.378       .  A
C726        C727   1.405       .  A
C726        O732   1.317       .  A
C727        C728   1.402       .  A
C727        H736   1.081   1_554  S
C728        C731   1.367       .  A
O729        C730   1.332       .  A
C730        C731   1.392       .  A
C731        H737   1.083       .  S
O732        C733   1.333       .  A
C733        C734   1.392       .  A
C734        H738   1.082       .  S
C739        C744   1.380       .  A
C739        C740   1.405       .  A
C739        O745   1.317       .  A
C740        C741   1.403       .  A
C740        H751   1.082       .  S
C741        C750   1.366       .  A
C741        C742   1.380       .  A
C742        C743   1.402       .  A
C742        O748   1.314       .  A
C743        C744   1.399       .  A
C743        H752   1.082       .  S
C744        C747   1.361       .  A
O745        C746   1.332       .  A
C746        C747   1.389       .  A
C747        H753   1.082       .  S
O748        C749   1.330       .  A
C749        C750   1.392       .  A
C750        H754   1.082       .  S
C755        C760   1.381       .  A
C755        C756   1.407       .  A
C755        O761   1.318       .  A
C756        C757   1.404       .  A
C756        H767   1.082       .  S
C757        C766   1.370       .  A
C757        C758   1.380       .  A
C758        C759   1.403       .  A
C758        O764   1.315       .  A
C759        C760   1.400       .  A
C759        H768   1.083       .  S
C760        C763   1.364       .  A
O761        C762   1.333       .  A
C762        C763   1.389       .  A
C763        H769   1.083       .  S
O764        C765   1.330       .  A
C765        C766   1.393       .  A
C766        H770   1.082       .  S
C771        C776   1.382       .  A
C771        C772   1.400       .  A
C771        O777   1.313       .  A
C772        C773   1.398       .  A
C772        H783   1.083       .  S
C773        C782   1.363       .  A
C773        C774   1.382       .  A
C774        C775   1.405       .  A
C774        O780   1.317       .  A
C775        C776   1.403       .  A
C775        H784   1.083       .  S
C776        C779   1.367       .  A
O777        C778   1.327       .  A
C778        C779   1.391       .  A
C779        H785   1.083       .  S
O780        C781   1.331       .  A
C781        C782   1.387       .  A
C782        H786   1.083       .  S
C787        C792   1.380   1_556  A
C787        C788   1.402       .  A
C787        O793   1.321       .  A
C788        C789   1.403       .  A
C788        H799   1.082       .  S
C789        C798   1.358       .  A
C789        C790   1.380       .  A
C790        C791   1.405   1_556  A
C790        O796   1.325   1_565  A
C791        C792   1.406       .  A
C791        H800   1.082       .  S
C792        C795   1.361       .  A
O793        C794   1.330   1_556  A
C794        C795   1.395       .  A
C795        H801   1.082       .  S
O796        C797   1.332       .  A
C797        C798   1.393   1_545  A
C798        H802   1.083       .  S
C803        C808   1.381       .  A
C803        C804   1.402       .  A
C803        O809   1.316       .  A
C804        C805   1.400       .  A
C804        H815   1.082       .  S
C805        C814   1.363       .  A
C805        C806   1.381       .  A
C806        C807   1.407       .  A
C806        O812   1.320       .  A
C807        C808   1.405       .  A
C807        H816   1.082   1_556  S
C808        C811   1.368       .  A
O809        C810   1.329       .  A
C810        C811   1.392       .  A
C811        H817   1.083       .  S
O812        C813   1.333       .  A
C813        C814   1.388       .  A
C814        H818   1.083       .  S
C819        C824   1.380       .  A
C819        C820   1.402       .  A
C819        O825   1.315       .  A
C820        C821   1.400       .  A
C820        H831   1.082       .  S
C821        C830   1.363       .  A
C821        C822   1.380       .  A
C822        C823   1.407       .  A
C822        O828   1.318       .  A
C823        C824   1.404       .  A
C823        H832   1.082       .  S
C824        C827   1.368       .  A
O825        C826   1.330       .  A
C826        C827   1.393       .  A
C827        H833   1.083       .  S
O828        C829   1.333       .  A
C829        C830   1.389       .  A
C830        H834   1.082       .  S
C835        C840   1.380       .  A
C835        C836   1.407       .  A
C835        O841   1.326       .  A
C836        C837   1.409       .  A
C836        H847   1.083       .  S
C837        C846   1.361       .  A
C837        C838   1.380       .  A
C838        C839   1.400       .  A
C838        O844   1.321       .  A
C839        C840   1.401       .  A
C839        H848   1.082       .  S
C840        C843   1.355       .  A
O841        C842   1.334       .  A
C842        C843   1.390       .  A
C843        H849   1.083       .  S
O844        C845   1.329       .  A
C845        C846   1.398       .  A
C846        H850   1.082   1_554  S
C851        C856   1.380       .  A
C851        C852   1.405       .  A
C851        O857   1.323       .  A
C852        C853   1.407       .  A
C852        H863   1.082       .  S
C853        C862   1.363       .  A
C853        C854   1.382       .  A
C854        C855   1.401       .  A
C854        O860   1.319       .  A
C855        C856   1.401       .  A
C855        H864   1.082       .  S
C856        C859   1.358       .  A
O857        C858   1.332       .  A
C858        C859   1.391       .  A
C859        H865   1.083       .  S
O860        C861   1.329       .  A
C861        C862   1.396       .  A
C862        H866   1.083       .  S
C867        C872   1.379       .  A
C867        C868   1.401       .  A
C867        O873   1.312       .  A
C868        C869   1.399       .  A
C868        H879   1.082       .  S
C869        C878   1.364       .  A
C869        C870   1.381       .  A
C870        C871   1.408       .  A
C870        O876   1.317       .  A
C871        C872   1.404       .  A
C871        H880   1.082       .  S
C872        C875   1.372       .  A
O873        C874   1.330       .  A
C874        C875   1.393       .  A
C875        H881   1.082       .  S
O876        C877   1.334       .  A
C877        C878   1.388       .  A
C878        H882   1.083       .  S
C883        C888   1.380       .  A
C883        C884   1.405       .  A
C883        O889   1.314       .  A
C884        C885   1.401       .  A
C884        H895   1.082       .  S
C885        C894   1.367       .  A
C885        C886   1.378       .  A
C886        C887   1.406       .  A
C886        O892   1.315       .  A
C887        C888   1.402       .  A
C887        H896   1.082       .  S
C888        C891   1.368       .  A
O889        C890   1.332       .  A
C890        C891   1.392       .  A
C891        H897   1.082       .  S
O892        C893   1.333       .  A
C893        C894   1.392       .  A
C894        H898   1.082       .  S
C899        C904   1.381       .  A
C899        C900   1.407   1_556  A
C899        O905   1.326       .  A
C900        C901   1.409       .  A
C900        H911   1.082       .  S
C901        C910   1.363       .  A
C901        C902   1.381   1_554  A
C902        C903   1.398       .  A
C902        O908   1.319       .  A
C903        C904   1.399       .  A
C903        H912   1.082       .  S
C904        C907   1.352       .  A
O905        C906   1.333       .  A
C906        C907   1.390       .  A
C907        H913   1.083       .  S
O908        C909   1.328   1_556  A
C909        C910   1.396       .  A
C910        H914   1.082       .  S
C915        C920   1.382       .  A
C915        C916   1.405       .  A
C915        O921   1.316       .  A
C916        C917   1.402       .  A
C916        H927   1.082       .  S
C917        C926   1.367       .  A
C917        C918   1.380       .  A
C918        C919   1.401       .  A
C918        O924   1.314       .  A
C919        C920   1.399       .  A
C919        H928   1.083       .  S
C920        C923   1.363       .  A
O921        C922   1.331       .  A
C922        C923   1.387       .  A
C923        H929   1.083       .  S
O924        C925   1.330       .  A
C925        C926   1.391       .  A
C926        H930   1.082       .  S
C931        C936   1.380       .  A
C931        C932   1.404       .  A
C931        O937   1.316       .  A
C932        C933   1.402       .  A
C932        H943   1.082       .  S
C933        C942   1.364       .  A
C933        C934   1.381       .  A
C934        C935   1.400       .  A
C934        O940   1.313       .  A
C935        C936   1.398       .  A
C935        H944   1.082       .  S
C936        C939   1.359       .  A
O937        C938   1.331       .  A
C938        C939   1.388       .  A
C939        H945   1.082       .  S
O940        C941   1.329       .  A
C941        C942   1.391       .  A
C942        H946   1.082       .  S
C947        C952   1.382       .  A
C947        C948   1.403       .  A
C947        O953   1.316       .  A
C948        C949   1.401       .  A
C948        H959   1.082       .  S
C949        C958   1.366       .  A
C949        C950   1.381       .  A
C950        C951   1.402       .  A
C950        O956   1.315       .  A
C951        C952   1.400       .  A
C951        H960   1.083       .  S
C952        C955   1.363       .  A
O953        C954   1.331       .  A
C954        C955   1.388       .  A
C955        H961   1.083       .  S
O956        C957   1.331       .  A
C957        C958   1.390       .  A
C958        H962   1.082       .  S
C963        C968   1.380       .  A
C963        C964   1.403       .  A
C963        O969   1.315       .  A
C964        C965   1.400       .  A
C964        H975   1.083       .  S
C965        C974   1.365       .  A
C965        C966   1.381       .  A
C966        C967   1.407       .  A
C966        O972   1.318       .  A
C967        C968   1.404       .  A
C967        H976   1.082   1_455  S
C968        C971   1.370       .  A
O969        C970   1.331       .  A
C970        C971   1.392       .  A
C971        H977   1.082       .  S
O972        C973   1.333       .  A
C973        C974   1.388       .  A
C974        H978   1.083       .  S
C979        C984   1.379       .  A
C979        C980   1.404       .  A
C979        O985   1.315       .  A
C980        C981   1.401       .  A
C980        H991   1.083   1_554  S
C981        C990   1.364       .  A
C981        C982   1.381       .  A
C982        C983   1.402       .  A
C982        O988   1.314       .  A
C983        C984   1.400       .  A
C983        H992   1.082       .  S
C984        C987   1.363       .  A
O985        C986   1.332       .  A
C986        C987   1.390       .  A
C987        H993   1.082       .  S
O988        C989   1.329       .  A
C989        C990   1.391       .  A
C990        H994   1.083       .  S
C995       C1000   1.381       .  A
C995        C996   1.400       .  A
C995       O1001   1.320       .  A
C996        C997   1.401       .  A
C996       H1007   1.083       .  S
C997       C1006   1.355       .  A
C997        C998   1.380       .  A
C998        C999   1.406       .  A
C998       O1004   1.325       .  A
C999       C1000   1.408       .  A
C999       H1008   1.082   1_556  S
C1000      C1003   1.363       .  A
O1001      C1002   1.329       .  A
C1002      C1003   1.396       .  A
C1003      H1009   1.083   1_556  S
O1004      C1005   1.332       .  A
C1005      C1006   1.392       .  A
C1006      H1010   1.083       .  S
C1011      C1016   1.380       .  A
C1011      C1012   1.404       .  A
C1011      O1017   1.315       .  A
C1012      C1013   1.401       .  A
C1012      H1023   1.082       .  S
C1013      C1022   1.367       .  A
C1013      C1014   1.379       .  A
C1014      C1015   1.404       .  A
C1014      O1020   1.313       .  A
C1015      C1016   1.400       .  A
C1015      H1024   1.082   1_455  S
C1016      C1019   1.366       .  A
O1017      C1018   1.331       .  A
C1018      C1019   1.390       .  A
C1019      H1025   1.082       .  S
O1020      C1021   1.331       .  A
C1021      C1022   1.390       .  A
C1022      H1026   1.082       .  S
C1027      C1032   1.379       .  A
C1027      C1028   1.404       .  A
C1027      O1033   1.317       .  A
C1028      C1029   1.402       .  A
C1028      H1039   1.082       .  S
C1029      C1038   1.364       .  A
C1029      C1030   1.378       .  A
C1030      C1031   1.410       .  A
C1030      O1036   1.320       .  A
C1031      C1032   1.407       .  A
C1031      H1040   1.082       .  S
C1032      C1035   1.372       .  A
O1033      C1034   1.332       .  A
C1034      C1035   1.395       .  A
C1035      H1041   1.082       .  S
O1036      C1037   1.333       .  A
C1037      C1038   1.390       .  A
C1038      H1042   1.082       .  S
C1043      C1048   1.379       .  A
C1043      C1044   1.404       .  A
C1043      O1049   1.317       .  A
C1044      C1045   1.402       .  A
C1044      H1055   1.082       .  S
C1045      C1054   1.366       .  A
C1045      C1046   1.379       .  A
C1046      C1047   1.409       .  A
C1046      O1052   1.319       .  A
C1047      C1048   1.406       .  A
C1047      H1056   1.082       .  S
C1048      C1051   1.369       .  A
O1049      C1050   1.332       .  A
C1050      C1051   1.394       .  A
C1051      H1057   1.082       .  S
O1052      C1053   1.335       .  A
C1053      C1054   1.390       .  A
C1054      H1058   1.082       .  S
C1059      C1064   1.380       .  A
C1059      C1060   1.408       .  A
C1059      O1065   1.329       .  A
C1060      C1061   1.411       .  A
C1060      H1071   1.083   1_655  S
C1061      C1070   1.360       .  A
C1061      C1062   1.381       .  A
C1062      C1063   1.395       .  A
C1062      O1068   1.318       .  A
C1063      C1064   1.397       .  A
C1063      H1072   1.082       .  S
C1064      C1067   1.346       .  A
O1065      C1066   1.335       .  A
C1066      C1067   1.389       .  A
C1067      H1073   1.083       .  S
O1068      C1069   1.327       .  A
C1069      C1070   1.397       .  A
C1070      H1074   1.081   1_655  S
C1075      C1080   1.380       .  A
C1075      C1076   1.405       .  A
C1075      O1081   1.316       .  A
C1076      C1077   1.402       .  A
C1076      H1087   1.082       .  S
C1077      C1086   1.368       .  A
C1077      C1078   1.380       .  A
C1078      C1079   1.402       .  A
C1078      O1084   1.313       .  A
C1079      C1080   1.399       .  A
C1079      H1088   1.082       .  S
C1080      C1083   1.362       .  A
O1081      C1082   1.330       .  A
C1082      C1083   1.390       .  A
C1083      H1089   1.082       .  S
O1084      C1085   1.330       .  A
C1085      C1086   1.390       .  A
C1086      H1090   1.082       .  S
C1091      C1096   1.381       .  A
C1091      C1092   1.406       .  A
C1091      O1097   1.317       .  A
C1092      C1093   1.403       .  A
C1092      H1103   1.082   1_455  S
C1093      C1102   1.369       .  A
C1093      C1094   1.380       .  A
C1094      C1095   1.400       .  A
C1094      O1100   1.311       .  A
C1095      C1096   1.398       .  A
C1095      H1104   1.083       .  S
C1096      C1099   1.362       .  A
O1097      C1098   1.333       .  A
C1098      C1099   1.387       .  A
C1099      H1105   1.083       .  S
O1100      C1101   1.329       .  A
C1101      C1102   1.391       .  A
C1102      H1106   1.082       .  S
C1107      C1112   1.380       .  A
C1107      C1108   1.399       .  A
C1107      O1113   1.309       .  A
C1108      C1109   1.396       .  A
C1108      H1119   1.082       .  S
C1109      C1118   1.362       .  A
C1109      C1110   1.380       .  A
C1110      C1111   1.409       .  A
C1110      O1116   1.318       .  A
C1111      C1112   1.404       .  A
C1111      H1120   1.082       .  S
C1112      C1115   1.371       .  A
O1113      C1114   1.328       .  A
C1114      C1115   1.393       .  A
C1115      H1121   1.082       .  S
O1116      C1117   1.334       .  A
C1117      C1118   1.387       .  A
C1118      H1122   1.083       .  S
C1123      C1128   1.379       .  A
C1123      C1124   1.404       .  A
C1123      O1129   1.314       .  A
C1124      C1125   1.401       .  A
C1124      H1135   1.082       .  S
C1125      C1134   1.365       .  A
C1125      C1126   1.380       .  A
C1126      C1127   1.403       .  A
C1126      O1132   1.315       .  A
C1127      C1128   1.400       .  A
C1127      H1136   1.082       .  S
C1128      C1131   1.364       .  A
O1129      C1130   1.332       .  A
C1130      C1131   1.391       .  A
C1131      H1137   1.082       .  S
O1132      C1133   1.331       .  A
C1133      C1134   1.391       .  A
C1134      H1138   1.083       .  S
C1139      C1144   1.380       .  A
C1139      C1140   1.402       .  A
C1139      O1145   1.314       .  A
C1140      C1141   1.400       .  A
C1140      H1151   1.082       .  S
C1141      C1150   1.364       .  A
C1141      C1142   1.381       .  A
C1142      C1143   1.406       .  A
C1142      O1148   1.318       .  A
C1143      C1144   1.404       .  A
C1143      H1152   1.082       .  S
C1144      C1147   1.369       .  A
O1145      C1146   1.330       .  A
C1146      C1147   1.392       .  A
C1147      H1153   1.082       .  S
O1148      C1149   1.332       .  A
C1149      C1150   1.389       .  A
C1150      H1154   1.083       .  S
C1155      C1160   1.379       .  A
C1155      C1156   1.399       .  A
C1155      O1161   1.312       .  A
C1156      C1157   1.397       .  A
C1156      H1167   1.082       .  S
C1157      C1166   1.361       .  A
C1157      C1158   1.379       .  A
C1158      C1159   1.411       .  A
C1158      O1164   1.321       .  A
C1159      C1160   1.408       .  A
C1159      H1168   1.082       .  S
C1160      C1163   1.373       .  A
O1161      C1162   1.328       .  A
C1162      C1163   1.396       .  A
C1163      H1169   1.082       .  S
O1164      C1165   1.334       .  A
C1165      C1166   1.388       .  A
C1166      H1170   1.082       .  S
C1171      C1176   1.380       .  A
C1171      C1172   1.405       .  A
C1171      O1177   1.317       .  A
C1172      C1173   1.402       .  A
C1172      H1183   1.082       .  S
C1173      C1182   1.364       .  A
C1173      C1174   1.379   1_556  A
C1174      C1175   1.402       .  A
C1174      O1180   1.314       .  A
C1175      C1176   1.400   1_554  A
C1175      H1184   1.082       .  S
C1176      C1179   1.363       .  A
O1177      C1178   1.332       .  A
C1178      C1179   1.390       .  A
C1179      H1185   1.083   1_556  S
O1180      C1181   1.331       .  A
C1181      C1182   1.393   1_554  A
C1182      H1186   1.082       .  S
C1187      C1192   1.379   1_554  A
C1187      C1188   1.409       .  A
C1187      O1193   1.317       .  A
C1188      C1189   1.404   1_554  A
C1188      H1199   1.082       .  S
C1189      C1198   1.373       .  A
C1189      C1190   1.379       .  A
C1190      C1191   1.401       .  A
C1190      O1196   1.310       .  A
C1191      C1192   1.397       .  A
C1191      H1200   1.082       .  S
C1192      C1195   1.363       .  A
O1193      C1194   1.334       .  A
C1194      C1195   1.388   1_554  A
C1195      H1201   1.082       .  S
O1196      C1197   1.330       .  A
C1197      C1198   1.393       .  A
C1198      H1202   1.082   1_556  S
C1203      C1208   1.380       .  A
C1203      C1204   1.398       .  A
C1203      O1209   1.309       .  A
C1204      C1205   1.395       .  A
C1204      H1215   1.083       .  S
C1205      C1214   1.358       .  A
C1205      C1206   1.379       .  A
C1206      C1207   1.406       .  A
C1206      O1212   1.315       .  A
C1207      C1208   1.402       .  A
C1207      H1216   1.082       .  S
C1208      C1211   1.369       .  A
O1209      C1210   1.328       .  A
C1210      C1211   1.392       .  A
C1211      H1217   1.082       .  S
O1212      C1213   1.330       .  A
C1213      C1214   1.387       .  A
C1214      H1218   1.083       .  S
