geometry optimzed in LAMMPS
_audit_creation_date              2020-12-01 
_audit_creation_method            'lammps2cif' 
_symmetry_space_group_name_H-M    'P1' 
_symmetry_Int_Tables_number       1 
_symmetry_cell_setting            triclinic 
loop_ 
_symmetry_equiv_pos_as_xyz 
  x,y,z 
_cell_length_a                    34.01362653 
_cell_length_b                    33.9957818553286 
_cell_length_c                    66.14558100012545 
_cell_angle_alpha                 90.03860320091334 
_cell_angle_beta                  90.07245535106519 
_cell_angle_gamma                 89.94688945045975 
loop_ 
_atom_site_label 
_atom_site_type_symbol 
_atom_site_fract_x 
_atom_site_fract_y 
_atom_site_fract_z 
_atom_site_charge 
In1        In  0.83393375  0.42230339  0.06896878     1.36900
C2          C  0.91200991  0.42295564  0.06953899     0.78500
O3          O  0.83522584  0.36367465  0.08486612    -0.60000
O4          O  0.80958416  0.36690242  0.05576720    -0.50900
C5          C  0.78667949  0.45707891  0.09583289     0.71100
O6          O  0.82152273  0.44726908  0.09985935    -0.45800
C7          C  0.82562728  0.46515535  0.03565730     0.75800
O8          O  0.89161303  0.44020411  0.08278498    -0.57600
O9          O  0.80908836  0.43228375  0.03801111    -0.47700
O10         O  0.89239886  0.40533937  0.05615566    -0.54100
C11         C  0.81985306  0.34536805  0.07030879     0.86000
O12         O  0.77567164  0.44801994  0.07826094    -0.55900
O13         O  0.84510653  0.47660571  0.05079898    -0.59200
In14       In  0.16129616  0.41850420  0.06881653     1.36900
C15         C  0.08293529  0.41961426  0.06945141     0.78500
O16         O  0.15528122  0.47388756  0.05079883    -0.60000
O17         O  0.19394045  0.42984240  0.03995908    -0.50900
C18         C  0.20684985  0.45345956  0.09602426     0.71100
O19         O  0.16998494  0.45697976  0.09570401    -0.45800
C20         C  0.17153141  0.34118697  0.07058685     0.75800
O21         O  0.10367943  0.42734699  0.08476508    -0.57600
O22         O  0.17536396  0.36066661  0.05452086    -0.47700
O23         O  0.10257790  0.41082464  0.05395195    -0.54100
C24         C  0.17862481  0.46317633  0.03707880     0.86000
O25         O  0.22041209  0.43056293  0.08275084    -0.55900
O26         O  0.16410753  0.36156319  0.08603688    -0.59200
In27       In  0.84550664  0.59417582  0.92699640     1.36900
C28         C  0.92372169  0.59688601  0.92616426     0.78500
O29         O  0.84022101  0.64818786  0.90767505    -0.60000
O30         O  0.82772114  0.65313146  0.93890559    -0.50900
C31         C  0.80006911  0.55671229  0.90037956     0.71100
O32         O  0.83695311  0.55825859  0.89881987    -0.45800
C33         C  0.83238804  0.55343041  0.96063982     0.75800
O34         O  0.90376514  0.57802789  0.91332928    -0.57600
O35         O  0.81560044  0.58570487  0.95697115    -0.47700
O36         O  0.90345527  0.61442304  0.93930220    -0.54100
C37         C  0.83101363  0.67043778  0.92216761     0.86000
O38         O  0.78645254  0.57487020  0.91545191    -0.55900
O39         O  0.85512768  0.54173129  0.94686375    -0.59200
In40       In  0.17283655  0.59942485  0.93112225     1.36900
C41         C  0.09462508  0.59882488  0.92921617     0.78500
O42         O  0.16394580  0.54519162  0.94953231    -0.60000
O43         O  0.20057887  0.58987234  0.96158129    -0.50900
C44         C  0.21985721  0.56477002  0.90434409     0.71100
O45         O  0.18336947  0.56855000  0.90178690    -0.45800
C46         C  0.18443610  0.67636185  0.92732888     0.75800
O47         O  0.11612364  0.58139753  0.91654652    -0.57600
O48         O  0.18986997  0.65833702  0.94372840    -0.47700
O49         O  0.11330928  0.61635828  0.94300135    -0.54100
C50         C  0.18489578  0.55663744  0.96411547     0.86000
O51         O  0.23261243  0.57931786  0.92061718    -0.55900
O52         O  0.17530357  0.65454448  0.91267744    -0.59200
In53       In  0.83113694  0.09731779  0.06724194     1.36900
C54         C  0.90877336  0.09643116  0.07159832     0.78500
O55         O  0.84567051  0.04433543  0.04849901    -0.60000
O56         O  0.80504989  0.08516558  0.03654596    -0.50900
C57         C  0.78116824  0.06488842  0.09328322     0.71100
O58         O  0.81648555  0.07202643  0.09763196    -0.45800
C59         C  0.81793173  0.17451721  0.06864814     0.75800
O60         O  0.88630692  0.07458859  0.08178383    -0.57600
O61         O  0.81304666  0.15408506  0.05294761    -0.47700
O62         O  0.89137822  0.11847656  0.05913186    -0.54100
C63         C  0.82355724  0.05341809  0.03393780     0.86000
O64         O  0.77119338  0.07517632  0.07573747    -0.55900
O65         O  0.82767901  0.15483187  0.08399498    -0.59200
In66       In  0.15714878  0.09407114  0.07404238     1.36900
C67         C  0.07907206  0.09550867  0.07567406     0.78500
O68         O  0.16393475  0.15249932  0.08984420    -0.60000
O69         O  0.17290091  0.14952139  0.05815306    -0.50900
C70         C  0.20137359  0.05911234  0.10200648     0.71100
O71         O  0.16508825  0.06509391  0.10421691    -0.45800
C72         C  0.16869394  0.05010801  0.04136340     0.75800
O73         O  0.09959304  0.07397264  0.08707894    -0.57600
O74         O  0.18946001  0.07970089  0.04547316    -0.47700
O75         O  0.09860861  0.11648697  0.06365362    -0.54100
C76         C  0.17063247  0.17089897  0.07363889     0.86000
O77         O  0.21545267  0.07302204  0.08591937    -0.55900
O78         O  0.14312085  0.04218336  0.05446927    -0.59200
In79       In  0.83804846  0.91749714  0.92747752     1.36900
C80         C  0.91623350  0.91883082  0.92769923     0.78500
O81         O  0.84382315  0.97227166  0.94593314    -0.60000
O82         O  0.81028718  0.92536015  0.95808767    -0.50900
C83         C  0.79313959  0.95512582  0.90097744     0.71100
O84         O  0.82992245  0.95244487  0.89938273    -0.45800
C85         C  0.82626997  0.84074355  0.92207971     0.75800
O86         O  0.89604913  0.93425436  0.91381957    -0.57600
O87         O  0.81973878  0.85799603  0.93860236    -0.47700
O88         O  0.89621542  0.90222298  0.94123727    -0.54100
C89         C  0.82401316  0.95948932  0.96059377     0.86000
O90         O  0.77886307  0.93694337  0.91588049    -0.55900
O91         O  0.83690477  0.86332356  0.90803003    -0.59200
In92       In  0.16526399  0.92282151  0.93227122     1.36900
C93         C  0.08702304  0.92228448  0.93056902     0.78500
O94         O  0.16813576  0.86813945  0.91346150    -0.60000
O95         O  0.18584045  0.86466694  0.94410850    -0.50900
C96         C  0.21326122  0.95823850  0.90631777     0.71100
O97         O  0.17668996  0.95563713  0.90365465    -0.45800
C98         C  0.17427743  0.96359290  0.96599939     0.75800
O99         O  0.10800934  0.94048841  0.91798418    -0.57600
O100        O  0.18803757  0.92942839  0.96380589    -0.47700
O101        O  0.10621821  0.90417027  0.94393259    -0.54100
C102        C  0.17980960  0.84662099  0.92776888     0.86000
O103        O  0.22548760  0.94245979  0.92239215    -0.55900
O104        O  0.15753246  0.97745281  0.95056643    -0.59200
In105      In  0.33699507  0.91572713  0.18010607     1.36900
C106        C  0.33951388  0.83737991  0.17898505     0.78500
O107        O  0.38839599  0.91837902  0.15904104    -0.60000
O108        O  0.39643660  0.93745562  0.18929401    -0.50900
C109        C  0.29683699  0.96224777  0.15523254     0.71100
O110        O  0.29579194  0.92524952  0.15425569    -0.45800
C111        C  0.29787299  0.92910228  0.21423748     0.75800
O112        O  0.32127003  0.85767374  0.16608202    -0.57600
O113        O  0.33266158  0.94076738  0.21158997    -0.47700
O114        O  0.35665974  0.85731691  0.19242074    -0.54100
C115        C  0.41183203  0.93118471  0.17226496     0.86000
O116        O  0.31957724  0.97559998  0.16864926    -0.55900
O117        O  0.28354292  0.91062478  0.19946837    -0.59200
In118      In  0.34211014  0.58810181  0.17779790     1.36900
C119        C  0.34196999  0.66636001  0.17799885     0.78500
O120        O  0.28716590  0.59531942  0.19587596    -0.60000
O121        O  0.33295794  0.55993884  0.20801421    -0.50900
C122        C  0.30552814  0.54328037  0.15090140     0.71100
O123        O  0.31094206  0.57961635  0.14852888    -0.45800
C124        C  0.41875255  0.57640893  0.17407063     0.75800
O125        O  0.32412638  0.64630719  0.16483983    -0.57600
O126        O  0.40023191  0.56854851  0.19003659    -0.47700
O127        O  0.35989528  0.64621194  0.19106612    -0.54100
C128        C  0.29928864  0.57474996  0.21044547     0.86000
O129        O  0.32123046  0.52917734  0.16657985    -0.55900
O130        O  0.39740147  0.58753562  0.15958232    -0.59200
In131      In  0.15984146  0.92461605  0.31953631     1.36900
C132        C  0.15859604  0.84642129  0.32073291     0.78500
O133        O  0.10356109  0.93184345  0.33676737    -0.60000
O134        O  0.10220766  0.94038949  0.30508574    -0.50900
C135        C  0.19702831  0.96856458  0.34682321     0.71100
O136        O  0.18988971  0.93256473  0.34941415    -0.45800
C137        C  0.20512613  0.93600221  0.28739039     0.75800
O138        O  0.17660986  0.86699340  0.33363020    -0.57600
O139        O  0.17456790  0.95609771  0.29062640    -0.47700
O140        O  0.14073488  0.86608661  0.30744053    -0.54100
C141        C  0.08292454  0.93837451  0.32128848     0.86000
O142        O  0.18327756  0.98258758  0.33063955    -0.55900
O143        O  0.21261666  0.91094582  0.30086157    -0.59200
In144      In  0.16366774  0.59725190  0.31626365     1.36900
C145        C  0.16293558  0.67543141  0.31774869     0.78500
O146        O  0.21520631  0.60790795  0.29611412    -0.60000
O147        O  0.17458281  0.56415363  0.28719544    -0.50900
C148        C  0.20108443  0.55142485  0.34273220     0.71100
O149        O  0.19924691  0.58832464  0.34428328    -0.45800
C150        C  0.08682340  0.58688426  0.32162307     0.75800
O151        O  0.18247005  0.65458777  0.32994353    -0.57600
O152        O  0.10337430  0.58263062  0.30470698    -0.47700
O153        O  0.14444059  0.65606209  0.30454100    -0.54100
C154        C  0.20607788  0.58214764  0.28325903     0.86000
O155        O  0.18226690  0.53772561  0.32788337    -0.55900
O156        O  0.11001395  0.59448226  0.33596746    -0.59200
In157      In  0.66438606  0.59784092  0.18073471     1.36900
C158        C  0.66184847  0.67617197  0.17907161     0.78500
O159        O  0.61045316  0.59292825  0.16171390    -0.60000
O160        O  0.60601291  0.57930735  0.19293578    -0.50900
C161        C  0.69841741  0.55052371  0.15373027     0.71100
O162        O  0.69723109  0.58739025  0.15186214    -0.45800
C163        C  0.70552352  0.58646355  0.21440443     0.75800
O164        O  0.68360631  0.65580356  0.16772201    -0.57600
O165        O  0.67255104  0.57065926  0.21140506    -0.47700
O166        O  0.64129076  0.65627878  0.19113872    -0.54100
C167        C  0.58858581  0.58310654  0.17622471     0.86000
O168        O  0.68206927  0.53791051  0.16953783    -0.55900
O169        O  0.71776409  0.60712270  0.19992570    -0.59200
In170      In  0.65731148  0.92593021  0.17674118     1.36900
C171        C  0.65947768  0.84751261  0.17711089     0.78500
O172        O  0.71334601  0.92572301  0.19461967    -0.60000
O173        O  0.66207911  0.94814356  0.20866552    -0.50900
C174        C  0.68951130  0.97444690  0.15012570     0.71100
O175        O  0.69103099  0.93753471  0.14848529    -0.45800
C176        C  0.58107295  0.93667166  0.17000482     0.75800
O177        O  0.67829125  0.86785473  0.16445450    -0.57600
O178        O  0.59794292  0.94777769  0.18601686    -0.47700
O179        O  0.63962306  0.86753926  0.18946618    -0.54100
C180        C  0.69807732  0.93983418  0.21038322     0.86000
O181        O  0.67112750  0.98664814  0.16543984    -0.55900
O182        O  0.60376809  0.92151638  0.15712104    -0.59200
In183      In  0.83529857  0.92672322  0.31696802     1.36900
C184        C  0.83678844  0.84879022  0.32059653     0.78500
O185        O  0.78357945  0.91228909  0.29739815    -0.60000
O186        O  0.82092338  0.95832225  0.28792577    -0.50900
C187        C  0.80026467  0.97235777  0.34414756     0.71100
O188        O  0.80550915  0.93602987  0.34664913    -0.45800
C189        C  0.91233612  0.93936545  0.31965295     0.75800
O190        O  0.81785321  0.87076920  0.33248231    -0.57600
O191        O  0.89410064  0.94019978  0.30306867    -0.47700
O192        O  0.85449663  0.86694977  0.30670965    -0.54100
C193        C  0.79078426  0.93796385  0.28419019     0.86000
O194        O  0.81331100  0.98569925  0.32769150    -0.55900
O195        O  0.89070568  0.93454049  0.33486962    -0.59200
In196      In  0.83869844  0.59974227  0.32182218     1.36900
C197        C  0.83830131  0.67791209  0.32322590     0.78500
O198        O  0.89509169  0.59753048  0.33977935    -0.60000
O199        O  0.89733120  0.58324877  0.30870540    -0.50900
C200        C  0.80159928  0.55299490  0.34791140     0.71100
O201        O  0.80369410  0.58977384  0.34992498    -0.45800
C202        C  0.79530929  0.58737708  0.28890092     0.75800
O203        O  0.82386484  0.65701406  0.33710595    -0.57600
O204        O  0.82763625  0.57017829  0.29198140    -0.47700
O205        O  0.85272236  0.65867980  0.30872267    -0.54100
C206        C  0.91623907  0.58829719  0.32487956     0.86000
O207        O  0.82022425  0.53971181  0.33291655    -0.55900
O208        O  0.78491321  0.61008708  0.30297501    -0.59200
In209      In  0.66843052  0.59298885  0.56780139     1.36900
C210        C  0.59029873  0.59486910  0.56810308     0.78500
O211        O  0.66903663  0.64649258  0.58750264    -0.60000
O212        O  0.68727327  0.65262277  0.55705021    -0.50900
C213        C  0.71405329  0.55582341  0.59454261     0.71100
O214        O  0.67704690  0.55497045  0.59505589    -0.45800
C215        C  0.68066606  0.55131380  0.53437030     0.75800
O216        O  0.61019855  0.57758339  0.58155090    -0.57600
O217        O  0.69846916  0.58319248  0.53777670    -0.47700
O218        O  0.61059575  0.61130994  0.55459696    -0.54100
C219        C  0.68032542  0.66933019  0.57369757     0.86000
O220        O  0.72778644  0.57590373  0.58017608    -0.55900
O221        O  0.65754548  0.54100530  0.54822552    -0.59200
In222      In  0.34094106  0.59648452  0.56671656     1.36900
C223        C  0.41932211  0.59755598  0.56768500     0.78500
O224        O  0.34868351  0.54266907  0.54746187    -0.60000
O225        O  0.30953932  0.58675487  0.53716071    -0.50900
C226        C  0.29682644  0.55957243  0.59403180     0.71100
O227        O  0.33381979  0.55833157  0.59395659    -0.45800
C228        C  0.32922420  0.67341906  0.57094224     0.75800
O229        O  0.39875561  0.58227766  0.58142647    -0.57600
O230        O  0.32405949  0.65583300  0.55437754    -0.47700
O231        O  0.39969908  0.61263219  0.55348737    -0.54100
C232        C  0.32559905  0.55398791  0.53374839     0.86000
O233        O  0.28217060  0.58085883  0.58034163    -0.55900
O234        O  0.33807755  0.65118556  0.58548589    -0.59200
In235      In  0.66149279  0.41710012  0.42806696     1.36900
C236        C  0.58340032  0.41392798  0.42478552     0.78500
O237        O  0.66890109  0.35987144  0.41157560    -0.60000
O238        O  0.67449307  0.35991832  0.44349668    -0.50900
C239        C  0.70680355  0.45644969  0.40205822     0.71100
O240        O  0.66988887  0.45925194  0.40256749    -0.45800
C241        C  0.67664981  0.45988459  0.46066368     0.75800
O242        O  0.60560901  0.41860322  0.40973521    -0.57600
O243        O  0.69220383  0.42671949  0.45761408    -0.47700
O244        O  0.60124593  0.41124779  0.44141666    -0.54100
C245        C  0.67371872  0.33998197  0.42746496     0.86000
O246        O  0.72056410  0.43186345  0.41447470    -0.55900
O247        O  0.65401569  0.47146941  0.44677030    -0.59200
In248      In  0.33471853  0.41879130  0.42694441     1.36900
C249        C  0.41266760  0.41549088  0.42440808     0.78500
O250        O  0.34547293  0.47245299  0.44594709    -0.60000
O251        O  0.30325141  0.43138677  0.45624408    -0.50900
C252        C  0.29148400  0.45730820  0.39986398     0.71100
O253        O  0.32841360  0.45896175  0.40057940    -0.45800
C254        C  0.32380261  0.34112747  0.42447505     0.75800
O255        O  0.39113921  0.42498560  0.40967260    -0.57600
O256        O  0.31970532  0.36002552  0.44073774    -0.47700
O257        O  0.39406598  0.40819521  0.44044374    -0.54100
C258        C  0.32148647  0.46305588  0.45961269     0.86000
O259        O  0.27634086  0.43473955  0.41284173    -0.55900
O260        O  0.33073115  0.36238065  0.40931459    -0.59200
In261      In  0.67201606  0.91679220  0.57314449     1.36900
C262        C  0.59412078  0.91738077  0.57528403     0.78500
O263        O  0.66393123  0.97028218  0.55373349    -0.60000
O264        O  0.70088724  0.92483082  0.54283207    -0.50900
C265        C  0.71980484  0.95204065  0.59932255     0.71100
O266        O  0.68295926  0.95244942  0.60106062    -0.45800
C267        C  0.68167598  0.83944879  0.57687649     0.75800
O268        O  0.61553985  0.93259345  0.58874816    -0.57600
O269        O  0.68741554  0.85765251  0.56058253    -0.47700
O270        O  0.61277945  0.90274531  0.56065701    -0.54100
C271        C  0.68547157  0.95796094  0.53957608     0.86000
O272        O  0.73238257  0.93278164  0.58437640    -0.55900
O273        O  0.67264394  0.86113705  0.59160198    -0.59200
In274      In  0.34633282  0.92079014  0.57146016     1.36900
C275        C  0.42380982  0.91735993  0.57452241     0.78500
O276        O  0.34361037  0.86392028  0.58821623    -0.60000
O277        O  0.32860256  0.86359557  0.55709662    -0.50900
C278        C  0.29958409  0.95344644  0.59886386     0.71100
O279        O  0.33636873  0.95741429  0.59889097    -0.45800
C280        C  0.33765492  0.96768169  0.53961979     0.75800
O281        O  0.40231818  0.93060206  0.58847922    -0.57600
O282        O  0.31906600  0.93578718  0.54138731    -0.47700
O283        O  0.40546330  0.90545925  0.55912420    -0.54100
C284        C  0.33376474  0.84384922  0.57302064     0.86000
O285        O  0.28658669  0.93245010  0.58462632    -0.55900
O286        O  0.35893073  0.97628289  0.55455363    -0.59200
In287      In  0.66861697  0.09161463  0.43295338     1.36900
C288        C  0.59087776  0.09060052  0.43088786     0.78500
O289        O  0.66054134  0.03763277  0.45196466    -0.60000
O290        O  0.70229845  0.07976867  0.46161208    -0.50900
C291        C  0.71290767  0.05847482  0.40470290     0.71100
O292        O  0.67596790  0.05686125  0.40459299    -0.45800
C293        C  0.67656178  0.16945067  0.43044592     0.75800
O294        O  0.61245753  0.07663803  0.41717878    -0.57600
O295        O  0.68165296  0.15084275  0.44670385    -0.47700
O296        O  0.60921202  0.10434183  0.44589208    -0.54100
C297        C  0.68518531  0.04765824  0.46523002     0.86000
O298        O  0.72746434  0.07751501  0.41927179    -0.55900
O299        O  0.66954780  0.14795075  0.41537134    -0.59200
In300      In  0.34259286  0.09258553  0.42944628     1.36900
C301        C  0.42052718  0.09244874  0.42757239     0.78500
O302        O  0.34099637  0.14865980  0.41136196    -0.60000
O303        O  0.32296036  0.15121097  0.44181962    -0.50900
C304        C  0.29620828  0.05481223  0.40319503     0.71100
O305        O  0.33214766  0.06098095  0.40003354    -0.45800
C306        C  0.33556258  0.05324492  0.46394312     0.75800
O307        O  0.39951151  0.07415441  0.41495585    -0.57600
O308        O  0.31455485  0.08279871  0.45988268    -0.47700
O309        O  0.40137127  0.11068418  0.44091311    -0.54100
C310        C  0.32963023  0.16998039  0.42579290     0.86000
O311        O  0.28388487  0.06831983  0.41976852    -0.55900
O312        O  0.35819476  0.04258061  0.44990608    -0.59200
In313      In  0.16746958  0.42236296  0.67742568     1.36900
C314        C  0.16660765  0.34434177  0.67383722     0.78500
O315        O  0.18120622  0.45040420  0.70751432    -0.60000
O316        O  0.21841871  0.40503893  0.69688519    -0.50900
C317        C  0.20319609  0.46825041  0.65046530     0.71100
O318        O  0.19499865  0.43273504  0.64718539    -0.45800
C319        C  0.09080072  0.43765021  0.67742594     0.75800
O320        O  0.18965029  0.36594273  0.66388475    -0.57600
O321        O  0.11222424  0.44081099  0.69287088    -0.47700
O322        O  0.14349591  0.36282550  0.68531008    -0.54100
C323        C  0.21048520  0.42868137  0.71093920     0.86000
O324        O  0.19123711  0.48112224  0.66722825    -0.55900
O325        O  0.10918843  0.42885888  0.66148921    -0.59200
In326      In  0.17197894  0.09573395  0.67987587     1.36900
C327        C  0.16956624  0.17356969  0.67510862     0.78500
O328        O  0.11773234  0.08217530  0.66195111    -0.60000
O329        O  0.11370181  0.08062213  0.69387899    -0.50900
C330        C  0.20888637  0.04674881  0.65512434     0.71100
O331        O  0.19673473  0.08007287  0.64956208    -0.45800
C332        C  0.21425737  0.09073996  0.71344768     0.75800
O333        O  0.19326492  0.15191655  0.66552150    -0.57600
O334        O  0.18400350  0.07000572  0.71054324    -0.47700
O335        O  0.14700984  0.15522639  0.68687171    -0.54100
C336        C  0.09591141  0.07818928  0.67719043     0.86000
O337        O  0.20160834  0.03822708  0.67326258    -0.55900
O338        O  0.22314823  0.11314538  0.69899277    -0.59200
In339      In  0.34069599  0.09699258  0.82310219     1.36900
C340        C  0.34247501  0.17536435  0.82486196     0.78500
O341        O  0.39570668  0.09135467  0.84160784    -0.60000
O342        O  0.39835472  0.07758873  0.81042685    -0.50900
C343        C  0.30518454  0.04895087  0.84912307     0.71100
O344        O  0.31239912  0.08452877  0.85297847    -0.45800
C345        C  0.30007277  0.09011310  0.78910312     0.75800
O346        O  0.31958060  0.15496551  0.83559389    -0.57600
O347        O  0.33159467  0.07141678  0.79208445    -0.47700
O348        O  0.36465836  0.15541665  0.81358356    -0.54100
C349        C  0.41686975  0.08142335  0.82682124     0.86000
O350        O  0.31652137  0.03782694  0.83191028    -0.55900
O351        O  0.28862315  0.11056679  0.80385115    -0.59200
In352      In  0.34242531  0.42470480  0.81937412     1.36900
C353        C  0.34346007  0.34660903  0.82235087     0.78500
O354        O  0.29117750  0.40848985  0.80003136    -0.60000
O355        O  0.33037427  0.45167128  0.78874489    -0.50900
C356        C  0.30729840  0.47274676  0.84570427     0.71100
O357        O  0.31298028  0.43670489  0.84900504    -0.45800
C358        C  0.41920485  0.43835302  0.82350851     0.75800
O359        O  0.32175945  0.36809805  0.83320316    -0.48000
O360        O  0.40147851  0.44194599  0.80684569    -0.47700
O361        O  0.36486166  0.36530311  0.81012659    -0.54100
C362        C  0.30030216  0.43079847  0.78560812     0.86000
O363        O  0.31956090  0.48433662  0.82874224    -0.55900
O364        O  0.39709904  0.42982665  0.83811551    -0.59200
In365      In  0.84833681  0.09452058  0.68044439     1.36900
C366        C  0.84851389  0.17269549  0.67732545     0.78500
O367        O  0.79382687  0.10673592  0.69837501    -0.60000
O368        O  0.83588541  0.06774978  0.71082469    -0.50900
C369        C  0.81365409  0.04598380  0.65438386     0.71100
O370        O  0.82125999  0.08135540  0.65025664    -0.45800
C371        C  0.92524296  0.07967239  0.67775588     0.75800
O372        O  0.82813144  0.15091204  0.66598391    -0.57600
O373        O  0.90685399  0.07849338  0.69428604    -0.47700
O374        O  0.86883746  0.15428737  0.69015958    -0.54100
C375        C  0.80325023  0.08492113  0.71299023     0.86000
O376        O  0.82512311  0.03517745  0.67163536    -0.55900
O377        O  0.90372709  0.08645997  0.66263310    -0.59200
In378      In  0.84405046  0.42201584  0.67927147     1.36900
C379        C  0.84628910  0.34383433  0.67710315     0.78500
O380        O  0.90174958  0.42820823  0.66311111    -0.60000
O381        O  0.89921163  0.44348738  0.69409597    -0.50900
C382        C  0.80758428  0.46721400  0.65236475     0.71100
O383        O  0.82184235  0.43413457  0.64792329    -0.45800
C384        C  0.79998963  0.42852193  0.71198479     0.75800
O385        O  0.82504455  0.36460012  0.66564537    -0.57600
O386        O  0.82904092  0.45077257  0.70889578    -0.47700
O387        O  0.86644585  0.36330845  0.68959268    -0.54100
C388        C  0.92033637  0.43887809  0.67864904     0.86000
O389        O  0.81327670  0.47775023  0.67037634    -0.55900
O390        O  0.79276664  0.40432835  0.69803427    -0.59200
In391      In  0.66582107  0.41956934  0.81904636     1.36900
C392        C  0.66152210  0.34187843  0.82005375     0.78500
O393        O  0.61162542  0.42587568  0.83801782    -0.60000
O394        O  0.60773655  0.44038492  0.80697849    -0.50900
C395        C  0.70492879  0.46573147  0.84440145     0.71100
O396        O  0.69589997  0.43068780  0.84852276    -0.45800
C397        C  0.70945754  0.42559270  0.78606455     0.75800
O398        O  0.68190932  0.36124283  0.83251680    -0.57600
O399        O  0.67733722  0.44386723  0.78809005    -0.47700
O400        O  0.64304316  0.36245777  0.80739089    -0.54100
C401        C  0.58982807  0.43600009  0.82350598     0.86000
O402        O  0.69293286  0.47761850  0.82742089    -0.55900
O403        O  0.71924564  0.40521511  0.80115573    -0.59200
In404      In  0.66348301  0.09362330  0.81829203     1.36900
C405        C  0.66053675  0.17145390  0.81937970     0.78500
O406        O  0.71756602  0.10397350  0.80003134    -0.60000
O407        O  0.67383851  0.06667948  0.78760999    -0.50900
C408        C  0.70149161  0.04866299  0.84460267     0.71100
O409        O  0.70051237  0.08562365  0.84573052    -0.45800
C410        C  0.58720389  0.08029767  0.82357182     0.75800
O411        O  0.67725968  0.15136926  0.83290497    -0.57600
O412        O  0.60424635  0.07492912  0.80687434    -0.47700
O413        O  0.64496917  0.15146017  0.80546946    -0.54100
C414        C  0.70678653  0.08311976  0.78530826     0.86000
O415        O  0.68194242  0.03435877  0.83013222    -0.55900
O416        O  0.60987474  0.09025921  0.83774696    -0.59200
C417        C  0.66002736  0.29834678  0.81992885    -0.04500
C418        C  0.65717132  0.27726199  0.83825653    -0.01600
C419        C  0.65638769  0.23580522  0.83807426     0.03400
C420        C  0.65977713  0.21508698  0.81959705    -0.04500
C421        C  0.66279903  0.23627869  0.80126375    -0.01600
C422        C  0.66192379  0.27768322  0.80139717     0.03400
C423        C  0.65356594  0.29818773  0.85730625     0.38100
C424        C  0.66880817  0.21572664  0.78224938     0.38000
C425        C  0.66401330  0.29888554  0.78237180     0.36500
C426        C  0.65072699  0.21467747  0.85690838     0.36500
N427        N  0.66538120  0.31574735  0.76719260    -0.38400
N428        N  0.64605826  0.19793057  0.87194223    -0.38400
N429        N  0.67387777  0.19941768  0.76710645    -0.37800
N430        N  0.65072330  0.31490581  0.87248343    -0.37800
C431        C  0.77739380  0.42869711  0.73101988    -0.04500
C432        C  0.75856919  0.46311906  0.73794772    -0.01600
C433        C  0.73586512  0.46211879  0.75579462     0.03400
C434        C  0.73353765  0.42710423  0.76733564    -0.04500
C435        C  0.75421427  0.39320057  0.76077861    -0.01600
C436        C  0.77495393  0.39373241  0.74239564     0.03400
C437        C  0.76194572  0.49939126  0.72654466     0.38100
C438        C  0.75441474  0.35744237  0.77277047     0.38000
C439        C  0.79452622  0.35826208  0.73533596     0.36500
C440        C  0.71587512  0.49752660  0.76249637     0.36500
N441        N  0.80995004  0.33003561  0.72958784    -0.38400
N442        N  0.69980253  0.52570399  0.76782446    -0.38400
N443        N  0.75533702  0.32897508  0.78234883    -0.37800
N444        N  0.76471171  0.52847571  0.71757655    -0.37800
C445        C  0.73089744  0.07937396  0.76669175    -0.04500
C446        C  0.71320522  0.08231388  0.74741364    -0.01600
C447        C  0.73670686  0.08271399  0.72983175     0.03400
C448        C  0.77823100  0.08067102  0.73136141    -0.04500
C449        C  0.79572468  0.07620092  0.75066171    -0.01600
C450        C  0.77216158  0.07545216  0.76818877     0.03400
C451        C  0.67090400  0.08694656  0.74563550     0.38100
C452        C  0.83815390  0.07399458  0.75274834     0.38000
C453        C  0.79056128  0.07032413  0.78783689     0.36500
C454        C  0.71783245  0.08475478  0.71015926     0.36500
N455        N  0.80520348  0.06621516  0.80349620    -0.38400
N456        N  0.70269120  0.08631742  0.69449982    -0.38400
N457        N  0.87197989  0.07221466  0.75445933    -0.37800
N458        N  0.63718778  0.09076023  0.74424457    -0.37800
C459        C  0.84830466  0.21644621  0.67600558    -0.04500
C460        C  0.81294405  0.23705551  0.67207558    -0.01600
C461        C  0.81237196  0.27859120  0.67220521     0.03400
C462        C  0.84717006  0.30004844  0.67620609    -0.04500
C463        C  0.88273602  0.27942439  0.67960464    -0.01600
C464        C  0.88334364  0.23790943  0.67932982     0.03400
C465        C  0.77661512  0.21570877  0.66858109     0.38100
C466        C  0.91915942  0.30078994  0.68286170     0.38000
C467        C  0.92053717  0.21738227  0.68166444     0.36500
C468        C  0.77537598  0.29906670  0.66909115     0.36500
N469        N  0.95023470  0.20107767  0.68341145    -0.38400
N470        N  0.74587612  0.31537354  0.66661347    -0.38400
N471        N  0.94821358  0.31776012  0.68548267    -0.37800
N472        N  0.74760788  0.19880075  0.66573484    -0.37800
C473        C  0.54633531  0.44011036  0.82538328    -0.04500
C474        C  0.52564294  0.46771712  0.81341820    -0.01600
C475        C  0.48412268  0.46836601  0.81345013     0.03400
C476        C  0.46276116  0.44151660  0.82549383    -0.04500
C477        C  0.48348466  0.41565216  0.83848149    -0.01600
C478        C  0.52495885  0.41452605  0.83820290     0.03400
C479        C  0.54701753  0.49590440  0.80117812     0.38100
C480        C  0.46234590  0.38877723  0.85161822     0.38000
C481        C  0.54524938  0.38503218  0.85021370     0.36500
C482        C  0.46346138  0.49756811  0.80147673     0.36500
N483        N  0.56124974  0.36134305  0.85972985    -0.38400
N484        N  0.44705451  0.52104466  0.79201106    -0.38400
N485        N  0.44556824  0.36748670  0.86217919    -0.37800
N486        N  0.56414204  0.51835414  0.79143512    -0.37800
C487        C  0.54378820  0.07721558  0.82608782    -0.04500
C488        C  0.52170993  0.05047366  0.81425505    -0.01600
C489        C  0.48026956  0.05050929  0.81521105     0.03400
C490        C  0.46035560  0.07706651  0.82811877    -0.04500
C491        C  0.48248584  0.10233943  0.84077030    -0.01600
C492        C  0.52386304  0.10294805  0.83947900     0.03400
C493        C  0.54142110  0.02297081  0.80086838     0.38100
C494        C  0.46288776  0.12968912  0.85431935     0.38000
C495        C  0.54541634  0.13259728  0.85077314     0.36500
C496        C  0.45819658  0.02298975  0.80283040     0.36500
N497        N  0.56235367  0.15657279  0.85963762    -0.38400
N498        N  0.44060044  0.00115775  0.79290120    -0.38400
N499        N  0.44741571  0.15150476  0.86515271    -0.37800
N500        N  0.55699478  0.00113091  0.79009082    -0.37800
C501        C  0.34340427  0.30285329  0.82359164    -0.04500
C502        C  0.37882799  0.28143166  0.82147473    -0.01600
C503        C  0.37861049  0.23992505  0.82218895     0.03400
C504        C  0.34291055  0.21923956  0.82505332    -0.04500
C505        C  0.30749088  0.24071267  0.82721984    -0.01600
C506        C  0.30772068  0.28222501  0.82643059     0.03400
C507        C  0.41591200  0.30198305  0.81891917     0.38100
C508        C  0.27024993  0.22023224  0.82920926     0.38000
C509        C  0.27076022  0.30351442  0.82742570     0.36500
C510        C  0.41548739  0.21869670  0.82031895     0.36500
N511        N  0.24126724  0.32049467  0.82812114    -0.38400
N512        N  0.44493835  0.20186786  0.81873616    -0.38400
N513        N  0.24051087  0.20401836  0.83072865    -0.37800
N514        N  0.44550569  0.31820866  0.81680574    -0.37800
C515        C  0.05242316  0.07419361  0.67568628    -0.04500
C516        C  0.03136975  0.09734435  0.66158080    -0.01600
C517        C  0.98995351  0.09862916  0.66211080     0.03400
C518        C  0.96885875  0.07567875  0.67629272    -0.04500
C519        C  0.98990242  0.05069382  0.68959409    -0.01600
C520        C  0.03147393  0.05016975  0.68937087     0.03400
C521        C  0.05220066  0.12169550  0.64708672     0.38100
C522        C  0.96893876  0.02504230  0.70338688     0.38000
C523        C  0.05268436  0.02420854  0.70296771     0.36500
C524        C  0.96943977  0.12585457  0.64886212     0.36500
N525        N  0.06964693  0.00342980  0.71375352    -0.38400
N526        N  0.95321996  0.14778730  0.63838427    -0.38400
N527        N  0.95233516  0.00447367  0.71438628    -0.37800
N528        N  0.06877222  0.14109415  0.63552607    -0.37800
C529        C  0.23696750  0.09004921  0.73257521    -0.04500
C530        C  0.24742112  0.12589775  0.74197569    -0.01600
C531        C  0.26744203  0.12570463  0.76061091     0.03400
C532        C  0.27879950  0.08970508  0.76956727    -0.04500
C533        C  0.26964274  0.05386922  0.75983943    -0.01600
C534        C  0.24781858  0.05400152  0.74166463     0.03400
C535        C  0.23643905  0.16319053  0.73285120     0.38100
C536        C  0.28176342  0.01681915  0.76877378     0.38000
C537        C  0.23687876  0.01701875  0.73226413     0.36500
C538        C  0.27678577  0.16279680  0.77041913     0.36500
N539        N  0.22788396  0.98750019  0.72486689    -0.38400
N540        N  0.28397122  0.19234723  0.77829283    -0.38400
N541        N  0.29162554  0.98727516  0.77584267    -0.37800
N542        N  0.22778852  0.19289528  0.72554455    -0.37800
C543        C  0.04726705  0.44151655  0.67833378    -0.04500
C544        C  0.02595670  0.45808085  0.66206463    -0.01600
C545        C  0.98443140  0.45817868  0.66230944     0.03400
C546        C  0.96385355  0.44272889  0.67908071    -0.04500
C547        C  0.98522921  0.42774793  0.69574756    -0.01600
C548        C  0.02661375  0.42655169  0.69523746     0.03400
C549        C  0.04666656  0.47571683  0.64518837     0.38100
C550        C  0.96477912  0.41119078  0.71303588     0.38000
C551        C  0.04759892  0.40731449  0.71163312     0.36500
C552        C  0.96295694  0.47456261  0.64531940     0.36500
N553        N  0.06420169  0.39173390  0.72465103    -0.38400
N554        N  0.94587334  0.48753626  0.63172767    -0.38400
N555        N  0.94852146  0.39802755  0.72682129    -0.37800
N556        N  0.06316178  0.48994669  0.63176458    -0.37800
C557        C  0.23329168  0.42976744  0.73009996    -0.04500
C558        C  0.24305436  0.46596947  0.73937728    -0.01600
C559        C  0.26604423  0.46654152  0.75718460     0.03400
C560        C  0.27795400  0.43090819  0.76631589    -0.04500
C561        C  0.26772730  0.39471801  0.75717271    -0.01600
C562        C  0.24556745  0.39413672  0.73917241     0.03400
C563        C  0.22974925  0.50273473  0.73057126     0.38100
C564        C  0.28110802  0.35784399  0.76590861     0.38000
C565        C  0.23401855  0.35658558  0.73050932     0.36500
C566        C  0.27699315  0.50386952  0.76618490     0.36500
N567        N  0.22467832  0.32667180  0.72366339    -0.38400
N568        N  0.28594613  0.53376793  0.77317206    -0.38400
N569        N  0.29184438  0.32847177  0.77283519    -0.37800
N570        N  0.21882070  0.53203003  0.72364038    -0.37800
C571        C  0.16733308  0.30067459  0.67267027    -0.04500
C572        C  0.20360000  0.28027604  0.67255395    -0.01600
C573        C  0.20433093  0.23875450  0.67282283     0.03400
C574        C  0.16879575  0.21718543  0.67324604    -0.04500
C575        C  0.13253561  0.23763795  0.67299159    -0.01600
C576        C  0.13182158  0.27913536  0.67264253     0.03400
C577        C  0.24033894  0.30192875  0.67341952     0.38100
C578        C  0.09567781  0.21618101  0.67297512     0.38000
C579        C  0.09434786  0.29961640  0.67193151     0.36500
C580        C  0.24181909  0.21843285  0.67399867     0.36500
N581        N  0.06447624  0.31592252  0.67136696    -0.38400
N582        N  0.27172671  0.20229384  0.67505535    -0.38400
N583        N  0.06602689  0.19952771  0.67311062    -0.37800
N584        N  0.26958169  0.31924596  0.67421976    -0.37800
C585        C  0.54741371  0.09126864  0.42937089    -0.04500
C586        C  0.52682187  0.05819110  0.42190483    -0.01600
C587        C  0.48536521  0.05854583  0.42105120     0.03400
C588        C  0.46422417  0.09243021  0.42714165    -0.04500
C589        C  0.48508020  0.12611114  0.43371827    -0.01600
C590        C  0.52636502  0.12525463  0.43519610     0.03400
C591        C  0.54815232  0.02309807  0.41584511     0.38100
C592        C  0.46427153  0.16231823  0.43837233     0.38000
C593        C  0.54711860  0.15995247  0.44229336     0.36500
C594        C  0.46470185  0.02326940  0.41471828     0.36500
N595        N  0.56348046  0.18761860  0.44804193    -0.38400
N596        N  0.44842675  0.99501290  0.40970912    -0.38400
N597        N  0.44765801  0.19120142  0.44200803    -0.37800
N598        N  0.56525303  0.99520218  0.41097350    -0.37800
C599        C  0.27408368  0.97308072  0.61409663    -0.04500
C600        C  0.28857633  0.98037230  0.63384208    -0.01600
C601        C  0.26701609  0.00408045  0.64735866     0.03400
C602        C  0.23041789  0.01993081  0.64143559    -0.04500
C603        C  0.21474512  0.01067568  0.62226579    -0.01600
C604        C  0.23627742  0.98705485  0.60869050     0.03400
C605        C  0.32527550  0.96277656  0.64053674     0.38100
C606        C  0.17619434  0.02528318  0.61654075     0.38000
C607        C  0.21954782  0.97803346  0.58904534     0.36500
C608        C  0.28356641  0.01385401  0.66697880     0.36500
N609        N  0.20589905  0.97061222  0.57347153    -0.38400
N610        N  0.29689266  0.02184060  0.68255792    -0.38400
N611        N  0.14545977  0.03695957  0.61199847    -0.37800
N612        N  0.35440355  0.94856327  0.64591330    -0.37800
C613        C  0.33642076  0.99210113  0.52104482    -0.04500
C614        C  0.37188723  0.00602828  0.51251144    -0.01600
C615        C  0.37129639  0.02678922  0.49408486     0.03400
C616        C  0.33533859  0.03346758  0.48390899    -0.04500
C617        C  0.29976831  0.02114515  0.49286089    -0.01600
C618        C  0.30032011  0.00041707  0.51135499     0.03400
C619        C  0.40931708  0.99769720  0.52222504     0.38100
C620        C  0.26262843  0.02891568  0.48284052     0.38000
C621        C  0.26362893  0.98843464  0.52062444     0.36500
C622        C  0.40773494  0.04233920  0.48591063     0.36500
N623        N  0.23430664  0.97901981  0.52802423    -0.38400
N624        N  0.43674386  0.05494555  0.47948648    -0.38400
N625        N  0.23291786  0.03518324  0.47492650    -0.37800
N626        N  0.43910013  0.99097079  0.52998053    -0.37800
C627        C  0.74595822  0.97357164  0.61345823    -0.04500
C628        C  0.77537182  0.99884895  0.60586403    -0.01600
C629        C  0.79816362  0.02182532  0.61923101     0.03400
C630        C  0.79175989  0.01969914  0.64033970    -0.04500
C631        C  0.76291402  0.99360036  0.64793470    -0.01600
C632        C  0.74018245  0.97064567  0.63454171     0.03400
C633        C  0.78098933  0.00268819  0.58419898     0.38100
C634        C  0.75508907  0.99160773  0.66948733     0.38000
C635        C  0.71104275  0.94364854  0.64253352     0.36500
C636        C  0.82839859  0.04745943  0.61115152     0.36500
N637        N  0.68787161  0.92209760  0.64893412    -0.38400
N638        N  0.85244896  0.06791801  0.60466240    -0.38400
N639        N  0.74881221  0.99008855  0.68666453    -0.37800
N640        N  0.78533172  0.00573518  0.56691878    -0.37800
C641        C  0.69110230  0.98035413  0.52046179    -0.04500
C642        C  0.69013733  0.96085482  0.50155366    -0.01600
C643        C  0.69037694  0.98277483  0.48342076     0.03400
C644        C  0.69170679  0.02434701  0.48399996    -0.04500
C645        C  0.69597452  0.04357503  0.50285449    -0.01600
C646        C  0.69529943  0.02170952  0.52097979     0.03400
C647        C  0.68684185  0.91832420  0.50063376     0.38100
C648        C  0.69941957  0.08608611  0.50380068     0.38000
C649        C  0.69892840  0.04197756  0.54021481     0.36500
C650        C  0.68963716  0.96239341  0.46412539     0.36500
N651        N  0.70174063  0.05816919  0.55554406    -0.38400
N652        N  0.68918223  0.94616978  0.44873686    -0.38400
N653        N  0.70236381  0.11997238  0.50454568    -0.37800
N654        N  0.68422162  0.88441050  0.49986417    -0.37800
C655        C  0.55051304  0.91651715  0.57639038    -0.04500
C656        C  0.52937380  0.94888435  0.58434304    -0.01600
C657        C  0.48792287  0.94906224  0.58381962     0.03400
C658        C  0.46726260  0.91645381  0.57588921    -0.04500
C659        C  0.48830159  0.88349623  0.56867443    -0.01600
C660        C  0.52970444  0.88356070  0.56884793     0.03400
C661        C  0.55002084  0.98288927  0.59231219     0.38100
C662        C  0.46742074  0.84907855  0.56132378     0.38000
C663        C  0.55073725  0.84912587  0.56160835     0.36500
C664        C  0.46667423  0.98395811  0.59025788     0.36500
N665        N  0.56745534  0.82170891  0.55578157    -0.38400
N666        N  0.44965363  0.01183536  0.59521099    -0.38400
N667        N  0.45085247  0.82163471  0.55543461    -0.37800
N668        N  0.56629453  0.01004071  0.59875387    -0.37800
C669        C  0.32294360  0.29733294  0.42349075    -0.04500
C670        C  0.35178938  0.27687529  0.41220737    -0.01600
C671        C  0.35342589  0.23537851  0.41264812     0.03400
C672        C  0.32610253  0.21368785  0.42432081    -0.04500
C673        C  0.29672944  0.23418661  0.43525262    -0.01600
C674        C  0.29508214  0.27573351  0.43474941     0.03400
C675        C  0.38126669  0.29847190  0.40087475     0.38100
C676        C  0.26764165  0.21265635  0.44683194     0.38000
C677        C  0.26387408  0.29622983  0.44536547     0.36500
C678        C  0.38486137  0.21532358  0.40193654     0.36500
N679        N  0.23886854  0.31263106  0.45371839    -0.38400
N680        N  0.41000073  0.19937954  0.39345078    -0.38400
N681        N  0.24444899  0.19555531  0.45611076    -0.37800
N682        N  0.40477038  0.31563125  0.39183161    -0.37800
C683        C  0.67607910  0.29643322  0.42747931    -0.04500
C684        C  0.64814810  0.27433599  0.41647442    -0.01600
C685        C  0.64841116  0.23292417  0.41746522     0.03400
C686        C  0.67704375  0.21311937  0.42922885    -0.04500
C687        C  0.70493234  0.23528999  0.44027784    -0.01600
C688        C  0.70430526  0.27678987  0.43948047     0.03400
C689        C  0.61753532  0.29423174  0.40503989     0.38100
C690        C  0.73478398  0.21552426  0.45222967     0.38000
C691        C  0.73316489  0.29927965  0.45078839     0.36500
C692        C  0.61748126  0.21096231  0.40736407     0.36500
N693        N  0.75608438  0.31731235  0.45981848    -0.38400
N694        N  0.59257936  0.19359217  0.39944667    -0.38400
N695        N  0.75860826  0.19981776  0.46178376    -0.37800
N696        N  0.59311267  0.31016673  0.39599558    -0.37800
C697        C  0.53979410  0.41214971  0.42326794    -0.04500
C698        C  0.51846044  0.38505176  0.43518691    -0.01600
C699        C  0.47700552  0.38508925  0.43485401     0.03400
C700        C  0.45632456  0.41315115  0.42314807    -0.04500
C701        C  0.47767347  0.43937618  0.41068127    -0.01600
C702        C  0.51918404  0.43842908  0.41051386     0.03400
C703        C  0.53906943  0.35642817  0.44757748     0.38100
C704        C  0.45724177  0.46881930  0.39873265     0.38000
C705        C  0.54058265  0.46589637  0.39785046     0.36500
C706        C  0.45573236  0.35532757  0.44616379     0.36500
N707        N  0.55762235  0.48772043  0.38770012    -0.38400
N708        N  0.43866292  0.33156003  0.45507697    -0.38400
N709        N  0.44103743  0.49242394  0.38925337    -0.37800
N710        N  0.55535676  0.33363902  0.45753123    -0.37800
C711        C  0.27277146  0.53675484  0.60870683    -0.04500
C712        C  0.23822163  0.55298673  0.61723948    -0.01600
C713        C  0.21531069  0.53070011  0.63087938     0.03400
C714        C  0.22677910  0.49208247  0.63611413    -0.04500
C715        C  0.26158130  0.47609017  0.62783002    -0.01600
C716        C  0.28433853  0.49817253  0.61415000     0.03400
C717        C  0.22677393  0.59306494  0.61252016     0.38100
C718        C  0.27488288  0.43722931  0.63391105     0.38000
C719        C  0.31919124  0.48047826  0.60530268     0.36500
C720        C  0.17936899  0.54718035  0.63911138     0.36500
N721        N  0.34697735  0.46635275  0.59827842    -0.38400
N722        N  0.15064678  0.56025755  0.64565766    -0.38400
N723        N  0.28549922  0.40632196  0.63882810    -0.37800
N724        N  0.21768248  0.62507679  0.60881370    -0.37800
C725        C  0.32775742  0.71695445  0.57287267    -0.04500
C726        C  0.29894618  0.73920254  0.56250701    -0.01600
C727        C  0.30031549  0.78072871  0.56286077     0.03400
C728        C  0.33037584  0.80031210  0.57367043    -0.04500
C729        C  0.35833694  0.77802623  0.58462445    -0.01600
C730        C  0.35703318  0.73662773  0.58422555     0.03400
C731        C  0.26708075  0.71948758  0.55200842     0.38100
C732        C  0.38987199  0.79747962  0.59556958     0.38000
C733        C  0.38723808  0.71441633  0.59477823     0.36500
C734        C  0.27011248  0.80328204  0.55253748     0.36500
N735        N  0.41129061  0.69670511  0.60318696    -0.38400
N736        N  0.24603244  0.82138663  0.54437187    -0.38400
N737        N  0.41502221  0.81291685  0.60429788    -0.37800
N738        N  0.24144002  0.70392691  0.54372933    -0.37800
C739        C  0.31923952  0.53110212  0.51484131    -0.04500
C740        C  0.31573154  0.48969523  0.51553761    -0.01600
C741        C  0.31430212  0.46756131  0.49747442     0.03400
C742        C  0.31684715  0.48659577  0.47849730    -0.04500
C743        C  0.31799661  0.52819449  0.47782854    -0.01600
C744        C  0.31905606  0.55033174  0.49589604     0.03400
C745        C  0.31327717  0.46972252  0.53488547     0.38100
C746        C  0.31766489  0.54850321  0.45854430     0.38000
C747        C  0.32183323  0.59290590  0.49489028     0.36500
C748        C  0.31195910  0.42499581  0.49856259     0.36500
N749        N  0.32399827  0.62685403  0.49417289    -0.38400
N750        N  0.30997907  0.39105105  0.49940895    -0.38400
N751        N  0.31726135  0.56502586  0.44325658    -0.37800
N752        N  0.31125705  0.45378625  0.55030467    -0.37800
C753        C  0.73909048  0.53466043  0.60958525    -0.04500
C754        C  0.77615339  0.51900590  0.60393619    -0.01600
C755        C  0.79864757  0.49714528  0.61794188     0.03400
C756        C  0.78471951  0.49119499  0.63778738    -0.04500
C757        C  0.74806545  0.50710459  0.64356332    -0.01600
C758        C  0.72546258  0.52887328  0.62961655     0.03400
C759        C  0.79094406  0.52412030  0.58354170     0.38100
C760        C  0.73235673  0.49912073  0.66355556     0.38000
C761        C  0.68834210  0.54566269  0.63618118     0.36500
C762        C  0.83626092  0.48074727  0.61188736     0.36500
N763        N  0.65875292  0.55890745  0.64150917    -0.38400
N764        N  0.86612656  0.46743077  0.60704311    -0.38400
N765        N  0.71963247  0.49241947  0.67940010    -0.37800
N766        N  0.80298525  0.52815647  0.56731813    -0.37800
C767        C  0.68332211  0.71260594  0.57649043    -0.04500
C768        C  0.71376398  0.73402487  0.56703008    -0.01600
C769        C  0.71411648  0.77546375  0.56791852     0.03400
C770        C  0.68399789  0.79591498  0.57820571    -0.04500
C771        C  0.65457170  0.77448097  0.58850553    -0.01600
C772        C  0.65427347  0.73300598  0.58768662     0.03400
C773        C  0.74525441  0.71349582  0.55664806     0.38100
C774        C  0.62311000  0.79495285  0.59897526     0.38000
C775        C  0.62263671  0.71158592  0.59746712     0.36500
C776        C  0.74598198  0.79708664  0.55850316     0.36500
N777        N  0.59748036  0.69441519  0.60524458    -0.38400
N778        N  0.77136949  0.81447291  0.55106735    -0.38400
N779        N  0.59790013  0.81109437  0.60730441    -0.37800
N780        N  0.77044800  0.69719755  0.54839246    -0.37800
C781        C  0.68530897  0.52776787  0.51554451    -0.04500
C782        C  0.69007505  0.54636590  0.49655124    -0.01600
C783        C  0.68895376  0.52390081  0.47859176     0.03400
C784        C  0.68298776  0.48281800  0.47946317    -0.04500
C785        C  0.68061682  0.46397546  0.49844291    -0.01600
C786        C  0.68189107  0.48629598  0.51637712     0.03400
C787        C  0.69416860  0.58877164  0.49525435     0.38100
C788        C  0.67467029  0.42174818  0.49962121     0.38000
C789        C  0.67946599  0.46631632  0.53573970     0.36500
C790        C  0.69424189  0.54306012  0.45917096     0.36500
N791        N  0.67738255  0.45055260  0.55120399    -0.38400
N792        N  0.69858489  0.55819727  0.44366590    -0.38400
N793        N  0.66986603  0.38810505  0.50060946    -0.37800
N794        N  0.69742378  0.62258792  0.49411748    -0.37800
C795        C  0.46305580  0.59716158  0.56803011    -0.04500
C796        C  0.48347047  0.56270004  0.57382534    -0.01600
C797        C  0.52495764  0.56197683  0.57390813     0.03400
C798        C  0.54653896  0.59567517  0.56809059    -0.04500
C799        C  0.52609772  0.63007058  0.56214410    -0.01600
C800        C  0.48459171  0.63090941  0.56229745     0.03400
C801        C  0.46184119  0.52728361  0.57894625     0.38100
C802        C  0.54767372  0.66513060  0.55634896     0.38000
C803        C  0.46417840  0.66717194  0.55735031     0.36500
C804        C  0.54527883  0.52579805  0.57913395     0.36500
N805        N  0.44804791  0.69621624  0.55350429    -0.38400
N806        N  0.56142860  0.49691059  0.58326276    -0.38400
N807        N  0.56494997  0.69298031  0.55165675    -0.37800
N808        N  0.44455233  0.49905952  0.58298475    -0.37800
C809        C  0.77783148  0.52791024  0.36172871    -0.04500
C810        C  0.79155097  0.49064962  0.36808572    -0.01600
C811        C  0.76887503  0.46748457  0.38147536     0.03400
C812        C  0.73165158  0.48091817  0.38826620    -0.04500
C813        C  0.71812500  0.51838360  0.38185263    -0.01600
C814        C  0.74088282  0.54146480  0.36859636     0.03400
C815        C  0.82941187  0.47629274  0.36115640     0.38100
C816        C  0.68128072  0.53430533  0.38936468     0.38000
C817        C  0.72531652  0.57878524  0.36145707     0.36500
C818        C  0.78414828  0.42976511  0.38810980     0.36500
N819        N  0.71288727  0.60846830  0.35573603    -0.38400
N820        N  0.79663220  0.39985800  0.39348665    -0.38400
N821        N  0.65198131  0.54714450  0.39533970    -0.37800
N822        N  0.85952863  0.46477047  0.35556131    -0.37800
C823        C  0.77992033  0.99696357  0.35939067    -0.04500
C824        C  0.74861464  0.02186950  0.35358744    -0.01600
C825        C  0.72724106  0.04272382  0.36838951     0.03400
C826        C  0.73703154  0.03876673  0.38906816    -0.04500
C827        C  0.76870565  0.01434208  0.39482683    -0.01600
C828        C  0.79028089  0.99378865  0.38002147     0.03400
C829        C  0.73710873  0.02464205  0.33249541     0.38100
C830        C  0.77765587  0.00844381  0.41607638     0.38000
C831        C  0.82355749  0.96971337  0.38602938     0.36500
C832        C  0.69517006  0.06834449  0.36230851     0.36500
N833        N  0.85020204  0.95061563  0.39076246    -0.38400
N834        N  0.66954436  0.08875405  0.35752583    -0.38400
N835        N  0.78448463  0.00355634  0.43303655    -0.37800
N836        N  0.72784526  0.02675640  0.31568688    -0.37800
C837        C  0.83791171  0.80511383  0.32256522    -0.04500
C838        C  0.80478037  0.78423512  0.32983934    -0.01600
C839        C  0.80493611  0.74269991  0.33020140     0.03400
C840        C  0.83849819  0.72161327  0.32376271    -0.04500
C841        C  0.87220260  0.74243255  0.31737803    -0.01600
C842        C  0.87191359  0.78389499  0.31671116     0.03400
C843        C  0.76981803  0.80520233  0.33636805     0.38100
C844        C  0.90775835  0.72120510  0.31197106     0.38000
C845        C  0.90728038  0.80453478  0.31053876     0.36500
C846        C  0.76964634  0.72175964  0.33619422     0.36500
N847        N  0.93555484  0.82082253  0.30560897    -0.38400
N848        N  0.74137872  0.70518054  0.34086698    -0.38400
N849        N  0.93603835  0.70417528  0.30769958    -0.37800
N850        N  0.74201485  0.82190077  0.34168583    -0.37800
C851        C  0.76605566  0.94293957  0.26566491    -0.04500
C852        C  0.72555782  0.93316809  0.26610948    -0.01600
C853        C  0.70300459  0.93361499  0.24819112     0.03400
C854        C  0.72043357  0.94433396  0.22960778    -0.04500
C855        C  0.76013514  0.95657975  0.22933536    -0.01600
C856        C  0.78292768  0.95565977  0.24720453     0.03400
C857        C  0.70666394  0.92267204  0.28502368     0.38100
C858        C  0.77759944  0.97056056  0.21065546     0.38000
C859        C  0.82422549  0.96618500  0.24619359     0.36500
C860        C  0.66223151  0.92105699  0.24884444     0.36500
N861        N  0.85715764  0.97455276  0.24530965    -0.38400
N862        N  0.62975111  0.91099550  0.24937141    -0.38400
N863        N  0.79153892  0.98182011  0.19579351    -0.37800
N864        N  0.69153405  0.91423659  0.30007113    -0.37800
C865        C  0.72789458  0.58216081  0.23355775    -0.04500
C866        C  0.70847848  0.58479938  0.25239648    -0.01600
C867        C  0.73037281  0.58466944  0.27053524     0.03400
C868        C  0.77194622  0.58260454  0.26999801    -0.04500
C869        C  0.79113467  0.57820240  0.25114011    -0.01600
C870        C  0.76914623  0.57762303  0.23305876     0.03400
C871        C  0.66607532  0.58953173  0.25318388     0.38100
C872        C  0.83369939  0.57610922  0.25007687     0.38000
C873        C  0.78906249  0.57182469  0.21387757     0.36500
C874        C  0.70984652  0.58620791  0.28975572     0.36500
N875        N  0.80477186  0.56706198  0.19855949    -0.38400
N876        N  0.69340308  0.58730832  0.30505443    -0.38400
N877        N  0.86764340  0.57449733  0.24916433    -0.37800
N878        N  0.63227901  0.59337657  0.25380113    -0.37800
C879        C  0.66087643  0.71997671  0.17849172    -0.04500
C880        C  0.66377718  0.74019624  0.15987164    -0.01600
C881        C  0.66361266  0.78174117  0.15938578     0.03400
C882        C  0.66047580  0.80363110  0.17753897    -0.04500
C883        C  0.65779370  0.78332250  0.19617738    -0.01600
C884        C  0.65758081  0.74181660  0.19662861     0.03400
C885        C  0.66533284  0.71831738  0.14103076     0.38100
C886        C  0.65714529  0.80494097  0.21511978     0.38000
C887        C  0.65523255  0.72172459  0.21596229     0.36500
C888        C  0.66562731  0.80173718  0.14003212     0.36500
N889        N  0.65324138  0.70573228  0.23137017    -0.38400
N890        N  0.66734503  0.81759629  0.12457999    -0.38400
N891        N  0.65685356  0.82206864  0.23024710    -0.37800
N892        N  0.66647791  0.70083373  0.12602188    -0.37800
C893        C  0.26815358  0.48088361  0.38514690    -0.04500
C894        C  0.28047053  0.51935152  0.38002882    -0.01600
C895        C  0.25896775  0.54186866  0.36595986     0.03400
C896        C  0.22430135  0.52661011  0.35704002    -0.04500
C897        C  0.21238786  0.48779307  0.36185716    -0.01600
C898        C  0.23407577  0.46517612  0.37592888     0.03400
C899        C  0.31489555  0.53652865  0.38959441     0.38100
C900        C  0.17766599  0.47089546  0.35251363     0.38000
C901        C  0.22177462  0.42527801  0.38047192     0.36500
C902        C  0.27379696  0.58028115  0.36012162     0.36500
N903        N  0.21198271  0.39346611  0.38411405    -0.38400
N904        N  0.28578535  0.61079749  0.35544449    -0.38400
N905        N  0.15015634  0.45716146  0.34500211    -0.37800
N906        N  0.34235620  0.55024279  0.39716007    -0.37800
C907        C  0.04340941  0.58467949  0.32419338    -0.04500
C908        C  0.02141761  0.55608826  0.31359127    -0.01600
C909        C  0.97995459  0.55630234  0.31446209     0.03400
C910        C  0.95993406  0.58519390  0.32591611    -0.04500
C911        C  0.98202090  0.61274306  0.33728208    -0.01600
C912        C  0.02352412  0.61254682  0.33638631     0.03400
C913        C  0.04149736  0.52587163  0.30201883     0.38100
C914        C  0.96219617  0.64276884  0.34911725     0.38000
C915        C  0.04550760  0.64264652  0.34712559     0.36500
C916        C  0.95797318  0.52608169  0.30386584     0.36500
N917        N  0.06296820  0.66674400  0.35563437    -0.38400
N918        N  0.94048244  0.50188476  0.29545930    -0.38400
N919        N  0.94643614  0.66671706  0.35856276    -0.37800
N920        N  0.05766627  0.50182263  0.29283263    -0.37800
C921        C  0.22118033  0.99190950  0.36126888    -0.04500
C922        C  0.21754324  0.98592762  0.38233358    -0.01600
C923        C  0.24266657  0.00576498  0.39592322     0.03400
C924        C  0.27059817  0.03312668  0.38870288    -0.04500
C925        C  0.27425684  0.03914699  0.36761873    -0.01600
C926        C  0.24998781  0.01833091  0.35397557     0.03400
C927        C  0.18756136  0.95970871  0.39016746     0.38100
C928        C  0.30290656  0.06685972  0.35982148     0.38000
C929        C  0.25619129  0.02267244  0.33237000     0.36500
C930        C  0.24148330  0.99587200  0.41724908     0.36500
N931        N  0.26123052  0.02582977  0.31514343    -0.38400
N932        N  0.24096608  0.98746704  0.43419484    -0.38400
N933        N  0.32577897  0.08884138  0.35352182    -0.37800
N934        N  0.16359570  0.93891482  0.39645433    -0.37800
C935        C  0.03929140  0.94101910  0.32188609    -0.04500
C936        C  0.01885790  0.96744706  0.30911869    -0.01600
C937        C  0.97734349  0.96772273  0.30875425     0.03400
C938        C  0.95588051  0.94146998  0.32106822    -0.04500
C939        C  0.97630652  0.91528306  0.33397178    -0.01600
C940        C  0.01773953  0.91500568  0.33435078     0.03400
C941        C  0.04044419  0.99473840  0.29645288     0.38100
C942        C  0.95487355  0.88677980  0.34603720     0.38000
C943        C  0.03803497  0.88596398  0.34664466     0.36500
C944        C  0.95673871  0.99560888  0.29594681     0.36500
N945        N  0.05421953  0.86269887  0.35635143    -0.38400
N946        N  0.94025956  0.01787057  0.28576382    -0.38400
N947        N  0.93785547  0.86396438  0.35560708    -0.37800
N948        N  0.05764546  0.01644536  0.28630895    -0.37800
C949        C  0.15917201  0.80264945  0.32079331    -0.04500
C950        C  0.12532852  0.78115233  0.31509216    -0.01600
C951        C  0.12641380  0.73966701  0.31434726     0.03400
C952        C  0.16159193  0.71918007  0.31891273    -0.04500
C953        C  0.19534810  0.74071195  0.32473739    -0.01600
C954        C  0.19400542  0.78213977  0.32591110     0.03400
C955        C  0.08881046  0.80154219  0.31057655     0.38100
C956        C  0.23218702  0.72053310  0.32872814     0.38000
C957        C  0.22914618  0.80358585  0.33173802     0.36500
C958        C  0.09069574  0.71819075  0.30957046     0.36500
N959        N  0.25711401  0.82065651  0.33646961    -0.38400
N960        N  0.06211620  0.70121705  0.30581580    -0.38400
N961        N  0.26164752  0.70458208  0.33185623    -0.37800
N962        N  0.05968772  0.81772059  0.30694629    -0.37800
C963        C  0.46231812  0.57524594  0.17291601    -0.04500
C964        C  0.48388593  0.54682273  0.18393354    -0.01600
C965        C  0.52527808  0.54874613  0.18468126     0.03400
C966        C  0.54546765  0.57860306  0.17407796    -0.04500
C967        C  0.52402376  0.60600240  0.16236814    -0.01600
C968        C  0.48266936  0.60472438  0.16203311     0.03400
C969        C  0.46363610  0.51525135  0.19437892     0.38100
C970        C  0.54427484  0.63711638  0.15151313     0.38000
C971        C  0.46129275  0.63568119  0.15160052     0.36500
C972        C  0.54704200  0.51958699  0.19618389     0.36500
N973        N  0.44444597  0.66061792  0.14340623    -0.38400
N974        N  0.56434339  0.49635066  0.20538595    -0.38400
N975        N  0.56047070  0.66180777  0.14283532    -0.37800
N976        N  0.44753556  0.49003336  0.20269456    -0.37800
C977        C  0.27641247  0.57034000  0.22932901    -0.04500
C978        C  0.23571904  0.56242395  0.22852815    -0.01600
C979        C  0.21277922  0.56441275  0.24627278     0.03400
C980        C  0.23049892  0.57446761  0.26497227    -0.04500
C981        C  0.27185261  0.57930431  0.26590474    -0.01600
C982        C  0.29464673  0.57734867  0.24815884     0.03400
C983        C  0.21750359  0.55197244  0.20939713     0.38100
C984        C  0.29130684  0.58622503  0.28513191     0.38000
C985        C  0.33666309  0.58471869  0.24919291     0.36500
C986        C  0.17073197  0.55779389  0.24494972     0.36500
N987        N  0.37014907  0.59059844  0.24992395    -0.38400
N988        N  0.13720191  0.55242462  0.24382452    -0.38400
N989        N  0.30695213  0.59176262  0.30041784    -0.37800
N990        N  0.20318223  0.54349582  0.19412242    -0.37800
C991        C  0.45453523  0.93645292  0.16854875    -0.04500
C992        C  0.47570416  0.90775715  0.15752727    -0.01600
C993        C  0.51714654  0.90883377  0.15706402     0.03400
C994        C  0.53772612  0.93922151  0.16721589    -0.04500
C995        C  0.51627478  0.97013262  0.17633481    -0.01600
C996        C  0.47491525  0.96835960  0.17735872     0.03400
C997        C  0.45516806  0.87545608  0.14776240     0.38100
C998        C  0.53667465  0.00416846  0.18443084     0.38000
C999        C  0.45339163  0.99946295  0.18754497     0.36500
C1000       C  0.53832430  0.87704614  0.14722347     0.36500
N1001       N  0.43627742  0.02420069  0.19574450    -0.38400
N1002       N  0.55506089  0.85158382  0.13940649    -0.38400
N1003       N  0.55292993  0.03144882  0.19073524    -0.37800
N1004       N  0.43877453  0.84976312  0.13995919    -0.37800
C1005       C  0.22974707  0.94001391  0.26895163    -0.04500
C1006       C  0.27085272  0.93382807  0.27006546    -0.01600
C1007       C  0.29355457  0.93184997  0.25225353     0.03400
C1008       C  0.27532647  0.93597514  0.23314824    -0.04500
C1009       C  0.23471317  0.94474674  0.23212403    -0.01600
C1010       C  0.21203369  0.94684935  0.24991830     0.03400
C1011       C  0.28997289  0.92943370  0.28958231     0.38100
C1012       C  0.21604525  0.95180345  0.21270609     0.38000
C1013       C  0.17007429  0.95415072  0.24838016     0.36500
C1014       C  0.33533568  0.92359679  0.25369562     0.36500
N1015       N  0.13664150  0.96002055  0.24707781    -0.38400
N1016       N  0.36863968  0.91701386  0.25496437    -0.38400
N1017       N  0.20111854  0.95742797  0.19724437    -0.37800
N1018       N  0.30507692  0.92586918  0.30516537    -0.37800
C1019       C  0.34038852  0.79361077  0.17851924    -0.04500
C1020       C  0.30614505  0.77219878  0.17338372    -0.01600
C1021       C  0.30667064  0.73070757  0.17333886     0.03400
C1022       C  0.34155328  0.71009728  0.17818698    -0.04500
C1023       C  0.37584052  0.73146285  0.18329852    -0.01600
C1024       C  0.37525195  0.77299123  0.18346730     0.03400
C1025       C  0.26970789  0.79268928  0.16888156     0.38100
C1026       C  0.41221060  0.71089394  0.18787476     0.38000
C1027       C  0.41108236  0.79440110  0.18807466     0.36500
C1028       C  0.27059339  0.70929897  0.16925106     0.36500
N1029       N  0.43968121  0.81141523  0.19173761    -0.38400
N1030       N  0.24182436  0.69219212  0.16609970    -0.38400
N1031       N  0.44124736  0.69462412  0.19157441    -0.37800
N1032       N  0.24061033  0.80892269  0.16527576    -0.37800
C1033       C  0.28437544  0.02276982  0.86361758    -0.04500
C1034       C  0.29202664  0.02572063  0.88459679    -0.01600
C1035       C  0.26980888  0.00359733  0.89855276     0.03400
C1036       C  0.23937917  0.97861606  0.89167703    -0.04500
C1037       C  0.23286308  0.97437727  0.87066328    -0.01600
C1038       C  0.25550807  0.99599893  0.85669672     0.03400
C1039       C  0.32321627  0.05118367  0.89189648     0.38100
C1040       C  0.20289637  0.94750583  0.86331008     0.38000
C1041       C  0.24785906  0.99154568  0.83522593     0.36500
C1042       C  0.27733844  0.00797771  0.92004162     0.36500
N1043       N  0.24166871  0.98771482  0.81812954    -0.38400
N1044       N  0.28346399  0.01149367  0.93716419    -0.38400
N1045       N  0.17888378  0.92617812  0.85751431    -0.37800
N1046       N  0.34809724  0.07151190  0.89766973    -0.37800
C1047       C  0.76914898  0.97886530  0.88669829    -0.04500
C1048       C  0.78403648  0.01496318  0.87932691    -0.01600
C1049       C  0.76211042  0.03733575  0.86540119     0.03400
C1050       C  0.72461153  0.02437410  0.85899441    -0.04500
C1051       C  0.70943110  0.98858869  0.86655027    -0.01600
C1052       C  0.73162824  0.96589224  0.88033258     0.03400
C1053       C  0.82145538  0.03006013  0.88656085     0.38100
C1054       C  0.67048208  0.97553339  0.86061471     0.38000
C1055       C  0.71606666  0.92876171  0.88757035     0.36500
C1056       C  0.77894684  0.07322580  0.85723931     0.36500
N1057       N  0.70362477  0.89915768  0.89334504    -0.38400
N1058       N  0.79245855  0.10177337  0.85074173    -0.38400
N1059       N  0.63939513  0.96515420  0.85589919    -0.37800
N1060       N  0.85120701  0.04215690  0.89235718    -0.37800
C1061       C  0.04332450  0.92217185  0.92976382    -0.04500
C1062       C  0.02111499  0.92460117  0.94779595    -0.01600
C1063       C  0.97967171  0.92441311  0.94703303     0.03400
C1064       C  0.95992925  0.92049592  0.92829552    -0.04500
C1065       C  0.98213758  0.91842228  0.91024864    -0.01600
C1066       C  0.02358585  0.91972004  0.91097232     0.03400
C1067       C  0.04071795  0.92886153  0.96718974     0.38100
C1068       C  0.96259406  0.91374681  0.89087461     0.38000
C1069       C  0.04586027  0.91737995  0.89229898     0.36500
C1070       C  0.95741635  0.93032791  0.96552659     0.36500
N1071       N  0.06366139  0.91571747  0.87742224    -0.38400
N1072       N  0.93954230  0.93535155  0.98018479    -0.38400
N1073       N  0.94713917  0.91001252  0.87539263    -0.37800
N1074       N  0.05617597  0.93223908  0.98269335    -0.37800
C1075       C  0.22517329  0.03583826  0.11660733    -0.04500
C1076       C  0.20964945  0.00087255  0.12499536    -0.01600
C1077       C  0.23309213  0.97700201  0.13759728     0.03400
C1078       C  0.27234865  0.98777985  0.14199770    -0.04500
C1079       C  0.28772789  0.02298981  0.13383544    -0.01600
C1080       C  0.26414891  0.04702534  0.12131109     0.03400
C1081       C  0.16991012  0.98841853  0.12013066     0.38100
C1082       C  0.32839258  0.03373867  0.13752111     0.38000
C1083       C  0.27979593  0.08380834  0.11365710     0.36500
C1084       C  0.21639200  0.94145225  0.14620520     0.36500
N1085       N  0.29215548  0.11323757  0.10760848    -0.38400
N1086       N  0.20314944  0.91304978  0.15301121    -0.38400
N1087       N  0.36088181  0.04225505  0.14033620    -0.37800
N1088       N  0.13825132  0.97839367  0.11630143    -0.37800
C1089       C  0.17287031  0.02738959  0.02230753    -0.04500
C1090       C  0.16610380  0.98633275  0.02206929    -0.01600
C1091       C  0.16717389  0.96541543  0.00367961     0.03400
C1092       C  0.17594302  0.98515662  0.98543144    -0.04500
C1093       C  0.18333280  0.02600750  0.98568138    -0.01600
C1094       C  0.18122161  0.04715314  0.00397135     0.03400
C1095       C  0.15750247  0.96541370  0.04067744     0.38100
C1096       C  0.19282794  0.04651980  0.96706685     0.38000
C1097       C  0.18477323  0.08970880  0.00354144     0.36500
C1098       C  0.15648737  0.92405764  0.00342429     0.36500
N1099       N  0.18713215  0.12366152  0.00313389    -0.38400
N1100       N  0.14757535  0.89121083  0.00315637    -0.38400
N1101       N  0.20027969  0.06288744  0.95222227    -0.37800
N1102       N  0.15042438  0.94866388  0.05545916    -0.37800
C1103       C  0.70873155  0.00097319  0.13533346    -0.04500
C1104       C  0.70729802  0.99198995  0.11447975    -0.01600
C1105       C  0.72985522  0.01382966  0.10060297     0.03400
C1106       C  0.75405819  0.04487130  0.10748763    -0.04500
C1107       C  0.75352745  0.05546664  0.12815200    -0.01600
C1108       C  0.73062739  0.03385577  0.14200746     0.03400
C1109       C  0.68203574  0.96059978  0.10720525     0.38100
C1110       C  0.77635174  0.08883719  0.13519191     0.38000
C1111       C  0.73072824  0.04485102  0.16321488     0.36500
C1112       C  0.72948268  0.00296613  0.07937122     0.36500
N1113       N  0.73059334  0.05380910  0.18009987    -0.38400
N1114       N  0.72918001  0.99430509  0.06244578    -0.38400
N1115       N  0.79456378  0.11542062  0.14082591    -0.37800
N1116       N  0.66174296  0.93566570  0.10145483    -0.37800
C1117       C  0.82007253  0.02882087  0.01527714    -0.04500
C1118       C  0.81171985  0.04635513  0.99629315    -0.01600
C1119       C  0.81090697  0.02321273  0.97856196     0.03400
C1120       C  0.81894585  0.98250559  0.97950157    -0.04500
C1121       C  0.82538802  0.96458660  0.99846597    -0.01600
C1122       C  0.82610045  0.98756437  0.01624041     0.03400
C1123       C  0.80579357  0.08851374  0.99463244     0.38100
C1124       C  0.83289048  0.92260230  0.99969607     0.38000
C1125       C  0.83318879  0.96835143  0.03550050     0.36500
C1126       C  0.80105161  0.04122672  0.95930065     0.36500
N1127       N  0.83906513  0.95300084  0.05082430    -0.38400
N1128       N  0.79297464  0.05537087  0.94393139    -0.38400
N1129       N  0.83876087  0.88911839  0.00068112    -0.37800
N1130       N  0.80115578  0.12212867  0.99318218    -0.37800
C1131       C  0.95222259  0.09618469  0.07390655    -0.04500
C1132       C  0.97285841  0.06024250  0.07584879    -0.01600
C1133       C  0.01430096  0.06005287  0.07690177     0.03400
C1134       C  0.03544852  0.09578778  0.07598828    -0.04500
C1135       C  0.01476627  0.13178442  0.07470688    -0.01600
C1136       C  0.97334516  0.13199171  0.07375662     0.03400
C1137       C  0.95166778  0.02320186  0.07594444     0.38100
C1138       C  0.03599983  0.16881578  0.07508812     0.38000
C1139       C  0.95242935  0.16924943  0.07343932     0.36500
C1140       C  0.03516433  0.02283757  0.07803672     0.36500
N1141       N  0.93568322  0.19890481  0.07331033    -0.38400
N1142       N  0.05185007  0.99320225  0.07895031    -0.38400
N1143       N  0.05290473  0.19833844  0.07549117    -0.37800
N1144       N  0.93478632  0.99365732  0.07603817    -0.37800
C1145       C  0.28756104  0.49898119  0.86064157    -0.04500
C1146       C  0.26072326  0.52823905  0.85418744    -0.01600
C1147       C  0.23972024  0.55071172  0.86851657     0.03400
C1148       C  0.24521152  0.54416978  0.88942642    -0.04500
C1149       C  0.27351440  0.51645623  0.89590768    -0.01600
C1150       C  0.29460172  0.49401035  0.88159335     0.03400
C1151       C  0.25338879  0.53449520  0.83282583     0.38100
C1152       C  0.28008193  0.50989579  0.91733146     0.38000
C1153       C  0.32418230  0.46629945  0.88852226     0.36500
C1154       C  0.21292264  0.58123785  0.86169712     0.36500
N1155       N  0.34785092  0.44427707  0.89402451    -0.38400
N1156       N  0.19165428  0.60571072  0.85634185    -0.38400
N1157       N  0.28541877  0.50470607  0.93440815    -0.37800
N1158       N  0.24729405  0.53978388  0.81583048    -0.37800
C1159       C  0.18619225  0.71989785  0.92572056    -0.04500
C1160       C  0.15722217  0.74021254  0.91443139    -0.01600
C1161       C  0.15583078  0.78162766  0.91470263     0.03400
C1162       C  0.18387765  0.80326260  0.92593106    -0.04500
C1163       C  0.21374759  0.78300708  0.93659055    -0.01600
C1164       C  0.21471658  0.74150772  0.93660884     0.03400
C1165       C  0.12695799  0.71865418  0.90358283     0.38100
C1166       C  0.24368009  0.80476881  0.94754197     0.38000
C1167       C  0.24526119  0.72113361  0.94782322     0.36500
C1168       C  0.12351152  0.80167209  0.90465592     0.36500
N1169       N  0.26955447  0.70493408  0.95683361    -0.38400
N1170       N  0.09760442  0.81766032  0.89680623    -0.38400
N1171       N  0.26752772  0.82209234  0.95630087    -0.37800
N1172       N  0.10274144  0.70155682  0.89497570    -0.37800
C1173       C  0.77483651  0.53474376  0.88585136    -0.04500
C1174       C  0.78322458  0.53532247  0.86489435    -0.01600
C1175       C  0.76027572  0.51298598  0.85128357     0.03400
C1176       C  0.72815899  0.49063222  0.85844963    -0.04500
C1177       C  0.71913404  0.49089198  0.87927717    -0.01600
C1178       C  0.74262924  0.51236720  0.89294756     0.03400
C1179       C  0.81491217  0.55961031  0.85718516     0.38100
C1180       C  0.68499860  0.46968625  0.88663420     0.38000
C1181       C  0.73447306  0.50990050  0.91444068     0.36500
C1182       C  0.77084505  0.51176132  0.83002618     0.36500
N1183       N  0.72802597  0.50772419  0.93157903    -0.38400
N1184       N  0.77941743  0.51062186  0.81310428    -0.38400
N1185       N  0.65763512  0.45286156  0.89236726    -0.37800
N1186       N  0.84006593  0.57911308  0.85102825    -0.37800
C1187       C  0.82622901  0.71373523  0.92004642    -0.04500
C1188       C  0.85172016  0.73530294  0.90731136    -0.01600
C1189       C  0.85089270  0.77680691  0.90742240     0.03400
C1190       C  0.82372156  0.79721173  0.91981807    -0.04500
C1191       C  0.79625268  0.77551457  0.93132537    -0.01600
C1192       C  0.79804462  0.73407158  0.93179057     0.03400
C1193       C  0.88062956  0.71506046  0.89493865     0.38100
C1194       C  0.76548261  0.79571645  0.94243475     0.38000
C1195       C  0.77068985  0.71246039  0.94442499     0.36500
C1196       C  0.87985031  0.79822019  0.89566083     0.36500
N1197       N  0.74905359  0.69527396  0.95461250    -0.38400
N1198       N  0.90308647  0.81515028  0.88632479    -0.38400
N1199       N  0.74074795  0.81176445  0.95117328    -0.37800
N1200       N  0.90361962  0.69895265  0.88504234    -0.37800
C1201       C  0.96748423  0.59788721  0.92611896    -0.04500
C1202       C  0.98770370  0.63252518  0.93187233    -0.01600
C1203       C  0.02915771  0.63281062  0.93293574     0.03400
C1204       C  0.05092133  0.59865227  0.92800352    -0.04500
C1205       C  0.03073442  0.56432216  0.92178187    -0.01600
C1206       C  0.98928605  0.56393267  0.92088739     0.03400
C1207       C  0.96603806  0.66847669  0.93595366     0.38100
C1208       C  0.05241659  0.52872422  0.91700827     0.38000
C1209       C  0.96918793  0.52785795  0.91527341     0.36500
C1210       C  0.04933114  0.66888878  0.93848933     0.36500
N1211       N  0.95319853  0.49912344  0.91078897    -0.38400
N1212       N  0.06532987  0.69764909  0.94292614    -0.38400
N1213       N  0.06969345  0.50032085  0.91317617    -0.37800
N1214       N  0.94878818  0.69720752  0.93912791    -0.37800
C1215       C  0.23209043  0.47574441  0.11038623    -0.04500
C1216       C  0.26686229  0.45891903  0.11840559    -0.01600
C1217       C  0.29083921  0.48071249  0.13178123     0.03400
C1218       C  0.28075723  0.51981457  0.13687925    -0.04500
C1219       C  0.24587125  0.53649907  0.12897254    -0.01600
C1220       C  0.22166210  0.51461745  0.11588055     0.03400
C1221       C  0.27784899  0.41889531  0.11329728     0.38100
C1222       C  0.23379012  0.57587995  0.13486517     0.38000
C1223       C  0.18633643  0.53283773  0.10779361     0.36500
C1224       C  0.32617670  0.46290675  0.14003876     0.36500
N1225       N  0.15810361  0.54740248  0.10149025    -0.38400
N1226       N  0.35421759  0.44853702  0.14668066    -0.38400
N1227       N  0.22411864  0.60722978  0.13955461    -0.37800
N1228       N  0.28708806  0.38708669  0.10925524    -0.37800
C1229       C  0.17341292  0.29762684  0.07097445    -0.04500
C1230       C  0.19406065  0.27762929  0.08642534    -0.01600
C1231       C  0.19425069  0.23611241  0.08701680     0.03400
C1232       C  0.17300257  0.21438873  0.07246228    -0.04500
C1233       C  0.15246646  0.23445104  0.05695811    -0.01600
C1234       C  0.15296119  0.27581991  0.05612442     0.03400
C1235       C  0.21571567  0.29961785  0.10155703     0.38100
C1236       C  0.12897008  0.21275181  0.04238000     0.38000
C1237       C  0.13055664  0.29593166  0.04051810     0.36500
C1238       C  0.21743119  0.21577519  0.10219097     0.36500
N1239       N  0.11272554  0.31204537  0.02811489    -0.38400
N1240       N  0.23616687  0.19956879  0.11420158    -0.38400
N1241       N  0.11008363  0.19553320  0.03081192    -0.37800
N1242       N  0.23292679  0.31688541  0.11376634    -0.37800
C1243       C  0.18928736  0.53315896  0.98292548    -0.04500
C1244       C  0.18793809  0.55169397  0.00205915    -0.01600
C1245       C  0.18592801  0.52885494  0.01983648     0.03400
C1246       C  0.18593219  0.48726744  0.01867887    -0.04500
C1247       C  0.19033794  0.46887072  0.99960803    -0.01600
C1248       C  0.19178132  0.49170995  0.98184059     0.03400
C1249       C  0.18673647  0.59429407  0.00354604     0.38100
C1250       C  0.19145105  0.42629563  0.99798878     0.38000
C1251       C  0.19583223  0.47234573  0.96237658     0.36500
C1252       C  0.18382222  0.54842807  0.03931893     0.36500
N1253       N  0.19897173  0.45691577  0.94685881    -0.38400
N1254       N  0.18206207  0.56422007  0.05479726    -0.38400
N1255       N  0.19242891  0.39235970  0.99666215    -0.37800
N1256       N  0.18590454  0.62825213  0.00476056    -0.37800
C1257       C  0.76128010  0.47876715  0.11036096    -0.04500
C1258       C  0.76007577  0.46767866  0.13093486    -0.01600
C1259       C  0.73840736  0.49020517  0.14500164     0.03400
C1260       C  0.71805701  0.52442395  0.13866279    -0.04500
C1261       C  0.71775470  0.53436000  0.11787130    -0.01600
C1262       C  0.73930803  0.51172390  0.10382680     0.03400
C1263       C  0.78074698  0.43268426  0.13766464     0.38100
C1264       C  0.69461021  0.56746946  0.11071696     0.38000
C1265       C  0.74012579  0.52353009  0.08273801     0.36500
C1266       C  0.73817445  0.47855700  0.16610958     0.36500
N1267       N  0.74077277  0.53293384  0.06592831    -0.38400
N1268       N  0.73780606  0.46919474  0.18292945    -0.38400
N1269       N  0.67610453  0.59378349  0.10496906    -0.37800
N1270       N  0.79718183  0.40479007  0.14308603    -0.37800
C1271       C  0.81481735  0.21829410  0.06874111    -0.04500
C1272       C  0.82518002  0.23996144  0.05124680    -0.01600
C1273       C  0.82608633  0.28137522  0.05177381     0.03400
C1274       C  0.81631382  0.30182900  0.06969595    -0.04500
C1275       C  0.80505814  0.28041780  0.08703361    -0.01600
C1276       C  0.80409332  0.23887205  0.08654631     0.03400
C1277       C  0.83694309  0.21995087  0.03280280     0.38100
C1278       C  0.79385610  0.30111561  0.10534237     0.38000
C1279       C  0.79114047  0.21754681  0.10432283     0.36500
C1280       C  0.83972459  0.30271749  0.03410407     0.36500
N1281       N  0.78066685  0.20072405  0.11853279    -0.38400
N1282       N  0.85086383  0.31955251  0.02003607    -0.38400
N1283       N  0.78494417  0.31761993  0.11994599    -0.37800
N1284       N  0.84629323  0.20415190  0.01806442    -0.37800
C1285       C  0.82356784  0.48799743  0.01644543    -0.04500
C1286       C  0.82167717  0.46831747  0.99756266    -0.01600
C1287       C  0.82361673  0.48983668  0.97936313     0.03400
C1288       C  0.82675867  0.53124540  0.97976434    -0.04500
C1289       C  0.82655830  0.55110637  0.99854908    -0.01600
C1290       C  0.82549819  0.52960830  0.01678512     0.03400
C1291       C  0.81929004  0.42573626  0.99660146     0.38100
C1292       C  0.82901839  0.59371314  0.99926176     0.38000
C1293       C  0.82650737  0.55063034  0.03589569     0.36500
C1294       C  0.82193747  0.46922233  0.96013801     0.36500
N1295       N  0.82761795  0.56736114  0.05113207    -0.38400
N1296       N  0.82067024  0.45289212  0.94479129    -0.38400
N1297       N  0.83082436  0.62768486  0.99991666    -0.37800
N1298       N  0.81721803  0.39181290  0.99563386    -0.37800
C1299       C  0.95560651  0.42310681  0.06964049    -0.04500
C1300       C  0.97636000  0.41398173  0.08751311    -0.01600
C1301       C  0.01781547  0.41230560  0.08742720     0.03400
C1302       C  0.03906395  0.42101069  0.06955980    -0.04500
C1303       C  0.01806304  0.43107370  0.05175260    -0.01600
C1304       C  0.97657094  0.43144636  0.05173540     0.03400
C1305       C  0.95494927  0.40458728  0.10585841     0.38100
C1306       C  0.03887666  0.44245002  0.03351458     0.38000
C1307       C  0.95545324  0.44147848  0.03333752     0.36500
C1308       C  0.03822729  0.39984489  0.10560877     0.36500
N1309       N  0.93860587  0.44934528  0.01866855    -0.38400
N1310       N  0.05430550  0.38969788  0.12013067    -0.38400
N1311       N  0.05538396  0.45166679  0.01897798    -0.37800
N1312       N  0.93773776  0.39713485  0.12044147    -0.37800
loop_ 
_geom_bond_atom_site_label_1 
_geom_bond_atom_site_label_2 
_geom_bond_distance 
_geom_bond_site_symmetry_2 
_ccdc_geom_bond_type 
In1           O3   2.255       .  S
In1           O4   2.235       .  S
In1          O12   2.251       .  S
In1           O6   2.252       .  S
In1           O8   2.248       .  S
In1           O9   2.240       .  S
In1          O10   2.238       .  S
In1          O13   2.237       .  S
C2            O8   1.262       .  A
C2           O10   1.259       .  A
C2         C1299   1.483       .  S
O3           C11   1.260       .  A
O4           C11   1.258       .  A
C5           O12   1.259       .  A
C5            O6   1.259       .  A
C5         C1257   1.488       .  S
C7            O9   1.261       .  A
C7           O13   1.262       .  A
C7         C1285   1.491       .  S
C11        C1274   1.486       .  S
In14         O16   2.238       .  S
In14         O17   2.243       .  S
In14         O25   2.249       .  S
In14         O19   2.227       .  S
In14         O21   2.247       .  S
In14         O22   2.233       .  S
In14         O23   2.240       .  S
In14         O26   2.249       .  S
C15          O21   1.261       .  A
C15          O23   1.260       .  A
C15        C1302   1.493       .  S
O16          C24   1.260       .  A
O17          C24   1.261       .  A
C18          O25   1.261       .  A
C18          O19   1.260       .  A
C18        C1215   1.487       .  S
C20          O22   1.259       .  A
C20          O26   1.260       .  A
C20        C1229   1.482       .  S
C24        C1246   1.489       .  S
In27         O29   2.245       .  S
In27         O30   2.236       .  S
In27         O38   2.246       .  S
In27         O32   2.246       .  S
In27         O34   2.247       .  S
In27         O35   2.248       .  S
In27         O36   2.240       .  S
In27         O39   2.239       .  S
C28          O34   1.261       .  A
C28          O36   1.259       .  A
C28        C1201   1.489       .  S
O29          C37   1.260       .  A
O30          C37   1.259       .  A
C31          O38   1.261       .  A
C31          O32   1.260       .  A
C31        C1173   1.489       .  S
C33          O35   1.260       .  A
C33          O39   1.260       .  A
C33        C1288   1.486       .  S
C37        C1187   1.487       .  S
In40         O42   2.231       .  S
In40         O43   2.247       .  S
In40         O51   2.255       .  S
In40         O45   2.235       .  S
In40         O47   2.241       .  S
In40         O48   2.245       .  S
In40         O49   2.247       .  S
In40         O52   2.238       .  S
C41          O47   1.260       .  A
C41          O49   1.261       .  A
C41        C1204   1.489       .  S
O42          C50   1.260       .  A
O43          C50   1.261       .  A
C44          O51   1.261       .  A
C44          O45   1.259       .  A
C44        C1148   1.486       .  S
C46          O48   1.260       .  A
C46          O52   1.259       .  A
C46        C1159   1.485       .  S
C50        C1243   1.486       .  S
In53         O55   2.241       .  S
In53         O56   2.253       .  S
In53         O64   2.246       .  S
In53         O58   2.244       .  S
In53         O60   2.244       .  S
In53         O61   2.235       .  S
In53         O62   2.238       .  S
In53         O65   2.250       .  S
C54          O60   1.262       .  A
C54          O62   1.261       .  A
C54        C1131   1.486       .  S
O55          C63   1.260       .  A
O56          C63   1.261       .  A
C57          O64   1.258       .  A
C57          O58   1.259       .  A
C57        C1106   1.483       .  S
C59          O61   1.260       .  A
C59          O65   1.260       .  A
C59        C1271   1.492       .  S
C63        C1117   1.495       .  S
In66         O68   2.256       .  S
In66         O69   2.225       .  S
In66         O77   2.249       .  S
In66         O71   2.242       .  S
In66         O73   2.247       .  S
In66         O74   2.241       .  S
In66         O75   2.239       .  S
In66         O78   2.239       .  S
C67          O73   1.261       .  A
C67          O75   1.259       .  A
C67        C1134   1.484       .  S
O68          C76   1.263       .  A
O69          C76   1.258       .  A
C70          O77   1.260       .  A
C70          O71   1.259       .  A
C70        C1075   1.487       .  S
C72          O74   1.259       .  A
C72          O78   1.258       .  A
C72        C1089   1.485       .  S
C76        C1232   1.483       .  S
In79         O81   2.235       .  S
In79         O82   2.251       .  S
In79         O90   2.252       .  S
In79         O84   2.223       .  S
In79         O86   2.245       .  S
In79         O87   2.242       .  S
In79         O88   2.238       .  S
In79         O91   2.246       .  S
C80          O86   1.260       .  A
C80          O88   1.260       .  A
C80        C1064   1.488       .  S
O81          C89   1.259       .  A
O82          C89   1.262       .  A
C83          O90   1.262       .  A
C83          O84   1.259       .  A
C83        C1047   1.486       .  S
C85          O87   1.260       .  A
C85          O91   1.259       .  A
C85        C1190   1.490       .  S
C89        C1120   1.485       .  S
In92         O94   2.238       .  S
In92         O95   2.238       .  S
In92        O103   2.253       .  S
In92         O97   2.232       .  S
In92         O99   2.245       .  S
In92        O100   2.235       .  S
In92        O101   2.244       .  S
In92        O104   2.232       .  S
C93          O99   1.260       .  A
C93         O101   1.259       .  A
C93        C1061   1.487       .  S
O94         C102   1.260       .  A
O95         C102   1.259       .  A
C96         O103   1.261       .  A
C96          O97   1.259       .  A
C96        C1036   1.487       .  S
C98         O100   1.260       .  A
C98         O104   1.260       .  A
C98        C1092   1.480       .  S
C102       C1162   1.485       .  S
In105       O107   2.239       .  S
In105       O108   2.236       .  S
In105       O116   2.251       .  S
In105       O110   2.233       .  S
In105       O112   2.245       .  S
In105       O113   2.254       .  S
In105       O114   2.248       .  S
In105       O117   2.232       .  S
C106        O112   1.260       .  A
C106        O114   1.260       .  A
C106       C1019   1.489       .  S
O107        C115   1.260       .  A
O108        C115   1.261       .  A
C109        O116   1.261       .  A
C109        O110   1.260       .  A
C109       C1078   1.487       .  S
C111        O113   1.261       .  A
C111        O117   1.259       .  A
C111       C1008   1.486       .  S
C115        C991   1.484       .  S
In118       O120   2.233       .  S
In118       O121   2.239       .  S
In118       O129   2.251       .  S
In118       O123   2.225       .  S
In118       O125   2.241       .  S
In118       O126   2.236       .  S
In118       O127   2.244       .  S
In118       O130   2.235       .  S
C119        O125   1.261       .  A
C119        O127   1.260       .  A
C119       C1022   1.487       .  S
O120        C128   1.260       .  A
O121        C128   1.261       .  A
C122        O129   1.261       .  A
C122        O123   1.259       .  A
C122       C1218   1.485       .  S
C124        O126   1.259       .  A
C124        O130   1.260       .  A
C124        C963   1.484       .  S
C128        C977   1.480       .  S
In131       O133   2.242       .  S
In131       O134   2.245       .  S
In131       O142   2.249       .  S
In131       O136   2.240       .  S
In131       O138   2.243       .  S
In131       O139   2.249       .  S
In131       O140   2.241       .  S
In131       O143   2.229       .  S
C132        O138   1.261       .  A
C132        O140   1.260       .  A
C132        C949   1.488       .  S
O133        C141   1.260       .  A
O134        C141   1.259       .  A
C135        O142   1.261       .  A
C135        O136   1.260       .  A
C135        C921   1.489       .  S
C137        O139   1.262       .  A
C137        O143   1.259       .  A
C137       C1005   1.487       .  S
C141        C935   1.487       .  S
In144       O146   2.233       .  S
In144       O147   2.258       .  S
In144       O155   2.255       .  S
In144       O149   2.233       .  S
In144       O151   2.242       .  S
In144       O152   2.244       .  S
In144       O153   2.242       .  S
In144       O156   2.246       .  S
C145        O151   1.262       .  A
C145        O153   1.261       .  A
C145        C952   1.490       .  S
O146        C154   1.259       .  A
O147        C154   1.262       .  A
C148        O155   1.261       .  A
C148        O149   1.260       .  A
C148        C896   1.493       .  S
C150        O152   1.261       .  A
C150        O156   1.260       .  A
C150        C907   1.489       .  S
C154        C980   1.491       .  S
In157       O159   2.229       .  S
In157       O160   2.236       .  S
In157       O168   2.249       .  S
In157       O162   2.242       .  S
In157       O164   2.249       .  S
In157       O165   2.247       .  S
In157       O166   2.244       .  S
In157       O169   2.237       .  S
C158        O164   1.261       .  A
C158        O166   1.260       .  A
C158        C879   1.490       .  S
O159        C167   1.260       .  A
O160        C167   1.260       .  A
C161        O168   1.261       .  A
C161        O162   1.260       .  A
C161       C1260   1.492       .  S
C163        O165   1.259       .  A
C163        O169   1.259       .  A
C163        C865   1.484       .  S
C167        C966   1.481       .  S
In170       O172   2.242       .  S
In170       O173   2.248       .  S
In170       O181   2.246       .  S
In170       O175   2.230       .  S
In170       O177   2.250       .  S
In170       O178   2.237       .  S
In170       O179   2.240       .  S
In170       O182   2.240       .  S
C171        O177   1.262       .  A
C171        O179   1.260       .  A
C171        C882   1.492       .  S
O172        C180   1.260       .  A
O173        C180   1.261       .  A
C174        O181   1.261       .  A
C174        O175   1.260       .  A
C174       C1103   1.484   1_565  S
C176        O178   1.262       .  A
C176        O182   1.260       .  A
C176        C994   1.488       .  S
C180        C854   1.489       .  S
In183       O185   2.237       .  S
In183       O186   2.255       .  S
In183       O194   2.254       .  S
In183       O188   2.233       .  S
In183       O190   2.243       .  S
In183       O191   2.250       .  S
In183       O192   2.239       .  S
In183       O195   2.240       .  S
C184        O190   1.261       .  A
C184        O192   1.261       .  A
C184        C837   1.491       .  S
O185        C193   1.260       .  A
O186        C193   1.262       .  A
C187        O194   1.261       .  A
C187        O188   1.259       .  A
C187        C823   1.481       .  S
C189        O191   1.260       .  A
C189        O195   1.258       .  A
C189        C938   1.486       .  S
C193        C851   1.495       .  S
In196       O198   2.256       .  S
In196       O199   2.246       .  S
In196       O207   2.259       .  S
In196       O201   2.235       .  S
In196       O203   2.250       .  S
In196       O204   2.246       .  S
In196       O205   2.236       .  S
In196       O208   2.240       .  S
C197        O203   1.262       .  A
C197        O205   1.260       .  A
C197        C840   1.486       .  S
O198        C206   1.260       .  A
O199        C206   1.259       .  A
C200        O207   1.261       .  A
C200        O201   1.259       .  A
C200        C809   1.490       .  S
C202        O204   1.261       .  A
C202        O208   1.260       .  A
C202        C868   1.490       .  S
C206        C910   1.491       .  S
In209       O211   2.237       .  S
In209       O212   2.243       .  S
In209       O220   2.253       .  S
In209       O214   2.238       .  S
In209       O216   2.243       .  S
In209       O217   2.259       .  S
In209       O218   2.239       .  S
In209       O221   2.221       .  S
C210        O216   1.262       .  A
C210        O218   1.261       .  A
C210        C798   1.489       .  S
O211        C219   1.260       .  A
O212        C219   1.261       .  A
C213        O220   1.261       .  A
C213        O214   1.260       .  A
C213        C753   1.494       .  S
C215        O217   1.262       .  A
C215        O221   1.259       .  A
C215        C781   1.488       .  S
C219        C767   1.486       .  S
In222       O224   2.244       .  S
In222       O225   2.251       .  S
In222       O233   2.258       .  S
In222       O227   2.234       .  S
In222       O229   2.245       .  S
In222       O230   2.251       .  S
In222       O231   2.251       .  S
In222       O234   2.237       .  S
C223        O229   1.260       .  A
C223        O231   1.260       .  A
C223        C795   1.488       .  S
O224        C232   1.259       .  A
O225        C232   1.261       .  A
C226        O233   1.261       .  A
C226        O227   1.259       .  A
C226        C711   1.489       .  S
C228        O230   1.260       .  A
C228        O234   1.260       .  A
C228        C725   1.486       .  S
C232        C739   1.488       .  S
In235       O237   2.244       .  S
In235       O238   2.240       .  S
In235       O246   2.259       .  S
In235       O240   2.233       .  S
In235       O242   2.254       .  S
In235       O243   2.239       .  S
In235       O244   2.241       .  S
In235       O247   2.238       .  S
C236        O242   1.261       .  A
C236        O244   1.259       .  A
C236        C697   1.488       .  S
O237        C245   1.261       .  A
O238        C245   1.258       .  A
C239        O246   1.262       .  A
C239        O240   1.260       .  A
C239        C812   1.498       .  S
C241        O243   1.261       .  A
C241        O247   1.261       .  A
C241        C784   1.483       .  S
C245        C683   1.483       .  S
In248       O250   2.245       .  S
In248       O251   2.256       .  S
In248       O259   2.259       .  S
In248       O253   2.226       .  S
In248       O255   2.245       .  S
In248       O256   2.256       .  S
In248       O257   2.235       .  S
In248       O260   2.248       .  S
C249        O255   1.260       .  A
C249        O257   1.261       .  A
C249        C700   1.489       .  S
O250        C258   1.260       .  A
O251        C258   1.263       .  A
C252        O259   1.262       .  A
C252        O253   1.258       .  A
C252        C893   1.489       .  S
C254        O256   1.260       .  A
C254        O260   1.259       .  A
C254        C669   1.491       .  S
C258        C742   1.491       .  S
In261       O263   2.243       .  S
In261       O264   2.251       .  S
In261       O272   2.250       .  S
In261       O266   2.239       .  S
In261       O268   2.246       .  S
In261       O269   2.237       .  S
In261       O270   2.229       .  S
In261       O273   2.253       .  S
C262        O268   1.261       .  A
C262        O270   1.260       .  A
C262        C655   1.485       .  S
O263        C271   1.261       .  A
O264        C271   1.260       .  A
C265        O272   1.260       .  A
C265        O266   1.259       .  A
C265        C627   1.483       .  S
C267        O269   1.259       .  A
C267        O273   1.259       .  A
C267        C770   1.485       .  S
C271        C641   1.489       .  S
In274       O276   2.231       .  S
In274       O277   2.246       .  S
In274       O285   2.247       .  S
In274       O279   2.226       .  S
In274       O281   2.236       .  S
In274       O282   2.252       .  S
In274       O283   2.233       .  S
In274       O286   2.236       .  S
C275        O281   1.261       .  A
C275        O283   1.260       .  A
C275        C658   1.481       .  S
O276        C284   1.260       .  A
O277        C284   1.261       .  A
C278        O285   1.261       .  A
C278        O279   1.259       .  A
C278        C599   1.488       .  S
C280        O282   1.261       .  A
C280        O286   1.258       .  A
C280        C613   1.484       .  S
C284        C728   1.485       .  S
In287       O289   2.243       .  S
In287       O290   2.250       .  S
In287       O298   2.249       .  S
In287       O292   2.230       .  S
In287       O294   2.234       .  S
In287       O295   2.253       .  S
In287       O296   2.237       .  S
In287       O299   2.242       .  S
C288        O294   1.260       .  A
C288        O296   1.261       .  A
C288        C585   1.482       .  S
O289        C297   1.260       .  A
O290        C297   1.261       .  A
C291        O298   1.261       .  A
C291        O292   1.258       .  A
C291        C826   1.480       .  S
C293        O295   1.260       .  A
C293        O299   1.259       .  A
C293        C686   1.487       .  S
C297        C644   1.490       .  S
In300       O302   2.252       .  S
In300       O303   2.255       .  S
In300       O311   2.253       .  S
In300       O305   2.250       .  S
In300       O307   2.250       .  S
In300       O308   2.254       .  S
In300       O309   2.225       .  S
In300       O312   2.237       .  S
C301        O307   1.262       .  A
C301        O309   1.260       .  A
C301        C588   1.487       .  S
O302        C310   1.259       .  A
O303        C310   1.259       .  A
C304        O311   1.260       .  A
C304        O305   1.258       .  A
C304        C924   1.490       .  S
C306        O308   1.261       .  A
C306        O312   1.260       .  A
C306        C616   1.482       .  S
C310        C672   1.494       .  S
In313       O315   2.255       .  S
In313       O316   2.236       .  S
In313       O324   2.259       .  S
In313       O318   2.238       .  S
In313       O320   2.247       .  S
In313       O321   2.229       .  S
In313       O322   2.245       .  S
In313       O325   2.255       .  S
C314        O320   1.261       .  A
C314        O322   1.260       .  A
C314        C571   1.487       .  S
O315        C323   1.260       .  A
O316        C323   1.258       .  A
C317        O324   1.260       .  A
C317        O318   1.258       .  A
C317        C714   1.485       .  S
C319        O321   1.259       .  A
C319        O325   1.262       .  A
C319        C543   1.488       .  S
C323        C557   1.486       .  S
In326       O328   2.240       .  S
In326       O329   2.249       .  S
In326       O337   2.242       .  S
In326       O331   2.239       .  S
In326       O333   2.254       .  S
In326       O334   2.247       .  S
In326       O335   2.241       .  S
In326       O338   2.230       .  S
C327        O333   1.262       .  A
C327        O335   1.259       .  A
C327        C574   1.488       .  S
O328        C336   1.260       .  A
O329        C336   1.261       .  A
C330        O337   1.259       .  A
C330        O331   1.261       .  A
C330        C602   1.479       .  S
C332        O334   1.262       .  A
C332        O338   1.260       .  A
C332        C529   1.482       .  S
C336        C515   1.489       .  S
In339       O341   2.243       .  S
In339       O342   2.233       .  S
In339       O350   2.251       .  S
In339       O344   2.240       .  S
In339       O346   2.254       .  S
In339       O347   2.249       .  S
In339       O348   2.239       .  S
In339       O351   2.228       .  S
C340        O346   1.263       .  A
C340        O348   1.259       .  A
C340        C504   1.492       .  S
O341        C349   1.261       .  A
O342        C349   1.260       .  A
C343        O350   1.260       .  A
C343        O344   1.260       .  A
C343       C1033   1.489       .  S
C345        O347   1.261       .  A
C345        O351   1.260       .  A
C345        C532   1.480       .  S
C349        C490   1.489       .  S
In352       O354   2.230       .  S
In352       O355   2.261       .  S
In352       O363   2.257       .  S
In352       O357   2.239       .  S
In352       O359   2.245       .  S
In352       O360   2.252       .  S
In352       O361   2.243       .  S
In352       O364   2.241       .  S
C353        O359   1.262       .  A
C353        O361   1.261       .  A
C353        C501   1.490       .  S
O354        C362   1.259       .  A
O355        C362   1.262       .  A
C356        O363   1.261       .  A
C356        O357   1.259       .  A
C356       C1145   1.491       .  S
C358        O360   1.262       .  A
C358        O364   1.259       .  A
C358        C476   1.491       .  S
C362        C560   1.485       .  S
In365       O367   2.241       .  S
In365       O368   2.247       .  S
In365       O376   2.243       .  S
In365       O370   2.243       .  S
In365       O372   2.250       .  S
In365       O373   2.256       .  S
In365       O374   2.242       .  S
In365       O377   2.240       .  S
C366        O372   1.261       .  A
C366        O374   1.260       .  A
C366        C459   1.490       .  S
O367        C375   1.260       .  A
O368        C375   1.262       .  A
C369        O376   1.260       .  A
C369        O370   1.260       .  A
C369        C630   1.488       .  S
C371        O373   1.261       .  A
C371        O377   1.260       .  A
C371        C518   1.493       .  S
C375        C448   1.492       .  S
In378       O380   2.246       .  S
In378       O381   2.239       .  S
In378       O389   2.242       .  S
In378       O383   2.244       .  S
In378       O385   2.245       .  S
In378       O386   2.248       .  S
In378       O387   2.242       .  S
In378       O390   2.226       .  S
C379        O385   1.262       .  A
C379        O387   1.261       .  A
C379        C462   1.490       .  S
O380        C388   1.259       .  A
O381        C388   1.259       .  A
C382        O389   1.259       .  A
C382        O383   1.259       .  A
C382        C756   1.482       .  S
C384        O386   1.262       .  A
C384        O390   1.260       .  A
C384        C431   1.476       .  S
C388        C546   1.486       .  S
In391       O393   2.241       .  S
In391       O394   2.244       .  S
In391       O402   2.248       .  S
In391       O396   2.233       .  S
In391       O398   2.241       .  S
In391       O399   2.244       .  S
In391       O400   2.228       .  S
In391       O403   2.223       .  S
C392        O398   1.262       .  A
C392        O400   1.259       .  A
C392        C417   1.481       .  S
O393        C401   1.260       .  A
O394        C401   1.261       .  A
C395        O402   1.261       .  A
C395        O396   1.261       .  A
C395       C1176   1.484       .  S
C397        O399   1.264       .  A
C397        O403   1.260       .  A
C397        C434   1.487       .  S
C401        C473   1.491       .  S
In404       O406   2.230       .  S
In404       O407   2.254       .  S
In404       O415   2.251       .  S
In404       O409   2.225       .  S
In404       O411   2.237       .  S
In404       O412   2.243       .  S
In404       O413   2.232       .  S
In404       O416   2.236       .  S
C405        O411   1.261       .  A
C405        O413   1.260       .  A
C405        C420   1.484       .  S
O406        C414   1.259       .  A
O407        C414   1.262       .  A
C408        O415   1.262       .  A
C408        O409   1.259       .  A
C408       C1050   1.485       .  S
C410        O412   1.261       .  A
C410        O416   1.260       .  A
C410        C487   1.490       .  S
C414        C445   1.486       .  S
C417        C418   1.412       .  A
C417        C422   1.414       .  A
C418        C419   1.410       .  A
C418        C423   1.452       .  S
C419        C420   1.415       .  A
C419        C426   1.452       .  S
C420        C421   1.415       .  A
C421        C422   1.408       .  A
C421        C424   1.453       .  S
C422        C425   1.453       .  S
C423        N430   1.157       .  T
C424        N429   1.158       .  T
C425        N427   1.157       .  T
C426        N428   1.157       .  T
C431        C432   1.410       .  A
C431        C436   1.410       .  A
C432        C433   1.412       .  A
C432        C437   1.451       .  S
C433        C434   1.417       .  A
C433        C440   1.451       .  S
C434        C435   1.418       .  A
C435        C436   1.407       .  A
C435        C438   1.452       .  S
C436        C439   1.454       .  S
C437        N444   1.157       .  T
C438        N443   1.157       .  T
C439        N441   1.157       .  T
C440        N442   1.157       .  T
C445        C446   1.413       .  A
C445        C450   1.413       .  A
C446        C447   1.412       .  A
C446        C451   1.452       .  S
C447        C448   1.418       .  A
C447        C454   1.452       .  S
C448        C449   1.416       .  A
C449        C450   1.410       .  A
C449        C452   1.451       .  S
C450        C453   1.452       .  S
C451        N458   1.158       .  T
C452        N457   1.157       .  T
C453        N455   1.157       .  T
C454        N456   1.157       .  T
C459        C460   1.415       .  A
C459        C464   1.415       .  A
C460        C461   1.412       .  A
C460        C465   1.452       .  S
C461        C462   1.415       .  A
C461        C468   1.452       .  S
C462        C463   1.415       .  A
C463        C464   1.412       .  A
C463        C466   1.452       .  S
C464        C467   1.452       .  S
C465        N472   1.157       .  T
C466        N471   1.158       .  T
C467        N469   1.157       .  T
C468        N470   1.157       .  T
C473        C474   1.415       .  A
C473        C478   1.417       .  A
C474        C475   1.412       .  A
C474        C479   1.451       .  S
C475        C476   1.414       .  A
C475        C482   1.451       .  S
C476        C477   1.416       .  A
C477        C478   1.411       .  A
C477        C480   1.453       .  S
C478        C481   1.453       .  S
C479        N486   1.157       .  T
C480        N485   1.158       .  T
C481        N483   1.158       .  T
C482        N484   1.157       .  T
C487        C488   1.415       .  A
C487        C492   1.417       .  A
C488        C489   1.411       .  A
C488        C493   1.452       .  S
C489        C490   1.415       .  A
C489        C496   1.452       .  S
C490        C491   1.416       .  A
C491        C492   1.410       .  A
C491        C494   1.453       .  S
C492        C495   1.453       .  S
C493        N500   1.157       .  T
C494        N499   1.158       .  T
C495        N497   1.157       .  T
C496        N498   1.157       .  T
C501        C502   1.414       .  A
C501        C506   1.415       .  A
C502        C503   1.412       .  A
C502        C507   1.453       .  S
C503        C504   1.417       .  A
C503        C510   1.452       .  S
C504        C505   1.415       .  A
C505        C506   1.412       .  A
C505        C508   1.452       .  S
C506        C509   1.452       .  S
C507        N514   1.157       .  T
C508        N513   1.157       .  T
C509        N511   1.158       .  T
C510        N512   1.158       .  T
C515        C516   1.415       .  A
C515        C520   1.413       .  A
C516        C517   1.410   1_455  A
C516        C521   1.453       .  S
C517        C518   1.417       .  A
C517        C524   1.453       .  S
C518        C519   1.416       .  A
C519        C520   1.414   1_655  A
C519        C522   1.451       .  S
C520        C523   1.451       .  S
C521        N528   1.158       .  T
C522        N527   1.157       .  T
C523        N525   1.157       .  T
C524        N526   1.157       .  T
C529        C530   1.413       .  A
C529        C534   1.414       .  A
C530        C531   1.408       .  A
C530        C535   1.453       .  S
C531        C532   1.413       .  A
C531        C538   1.453       .  S
C532        C533   1.412       .  A
C533        C534   1.412       .  A
C533        C536   1.451       .  S
C534        C537   1.451       .  S
C535        N542   1.157       .  T
C536        N541   1.157   1_545  T
C537        N539   1.157   1_545  T
C538        N540   1.157       .  T
C543        C544   1.414       .  A
C543        C548   1.416       .  A
C544        C545   1.413   1_455  A
C544        C549   1.451       .  S
C545        C546   1.414       .  A
C545        C552   1.451       .  S
C546        C547   1.415       .  A
C547        C548   1.409   1_655  A
C547        C550   1.453       .  S
C548        C551   1.453       .  S
C549        N556   1.157       .  T
C550        N555   1.157       .  T
C551        N553   1.157       .  T
C552        N554   1.157       .  T
C557        C558   1.414       .  A
C557        C562   1.415       .  A
C558        C559   1.413       .  A
C558        C563   1.451       .  S
C559        C560   1.413       .  A
C559        C566   1.450       .  S
C560        C561   1.414       .  A
C561        C562   1.408       .  A
C561        C564   1.453       .  S
C562        C565   1.453       .  S
C563        N570   1.157       .  T
C564        N569   1.158       .  T
C565        N567   1.157       .  T
C566        N568   1.157       .  T
C571        C572   1.415       .  A
C571        C576   1.413       .  A
C572        C573   1.412       .  A
C572        C577   1.452       .  S
C573        C574   1.415       .  A
C573        C580   1.452       .  S
C574        C575   1.415       .  A
C575        C576   1.411       .  A
C575        C578   1.451       .  S
C576        C579   1.453       .  S
C577        N584   1.157       .  T
C578        N583   1.157       .  T
C579        N581   1.158       .  T
C580        N582   1.157       .  T
C585        C586   1.414       .  A
C585        C590   1.412       .  A
C586        C587   1.411       .  A
C586        C591   1.452       .  S
C587        C588   1.416       .  A
C587        C594   1.452       .  S
C588        C589   1.415       .  A
C589        C590   1.408       .  A
C589        C592   1.452       .  S
C590        C593   1.453       .  S
C591        N598   1.158   1_545  T
C592        N597   1.158       .  T
C593        N595   1.157       .  T
C594        N596   1.157   1_545  T
C599        C600   1.417       .  A
C599        C604   1.416       .  A
C600        C601   1.409   1_565  A
C600        C605   1.452       .  S
C601        C602   1.411       .  A
C601        C608   1.452       .  S
C602        C603   1.410       .  A
C603        C604   1.410   1_545  A
C603        C606   1.452       .  S
C604        C607   1.451       .  S
C605        N612   1.158       .  T
C606        N611   1.157       .  T
C607        N609   1.157       .  T
C608        N610   1.157       .  T
C613        C614   1.415   1_565  A
C613        C618   1.413   1_565  A
C614        C615   1.409       .  A
C614        C619   1.453   1_545  S
C615        C616   1.414       .  A
C615        C622   1.453       .  S
C616        C617   1.412       .  A
C617        C618   1.412       .  A
C617        C620   1.450       .  S
C618        C621   1.450   1_545  S
C619        N626   1.158       .  T
C620        N625   1.157       .  T
C621        N623   1.157       .  T
C622        N624   1.158       .  T
C627        C628   1.412       .  A
C627        C632   1.412       .  A
C628        C629   1.411   1_565  A
C628        C633   1.452   1_565  S
C629        C630   1.415       .  A
C629        C636   1.451       .  S
C630        C631   1.416   1_545  A
C631        C632   1.411       .  A
C631        C634   1.452       .  S
C632        C635   1.452       .  S
C633        N640   1.157       .  T
C634        N639   1.158       .  T
C635        N637   1.157       .  T
C636        N638   1.157       .  T
C641        C642   1.415       .  A
C641        C646   1.414   1_565  A
C642        C643   1.413       .  A
C642        C647   1.452       .  S
C643        C644   1.415   1_565  A
C643        C650   1.452       .  S
C644        C645   1.415       .  A
C645        C646   1.411       .  A
C645        C648   1.451       .  S
C646        C649   1.452       .  S
C647        N654   1.158       .  T
C648        N653   1.157       .  T
C649        N651   1.157       .  T
C650        N652   1.157       .  T
C655        C656   1.415       .  A
C655        C660   1.416       .  A
C656        C657   1.410       .  A
C656        C661   1.452       .  S
C657        C658   1.413       .  A
C657        C664   1.452       .  S
C658        C659   1.412       .  A
C659        C660   1.408       .  A
C659        C662   1.453       .  S
C660        C663   1.453       .  S
C661        N668   1.157   1_565  T
C662        N667   1.157       .  T
C663        N665   1.157       .  T
C664        N666   1.157   1_565  T
C669        C670   1.415       .  A
C669        C674   1.413       .  A
C670        C671   1.412       .  A
C670        C675   1.453       .  S
C671        C672   1.417       .  A
C671        C678   1.453       .  S
C672        C673   1.417       .  A
C673        C674   1.414       .  A
C673        C676   1.451       .  S
C674        C677   1.451       .  S
C675        N682   1.157       .  T
C676        N681   1.157       .  T
C677        N679   1.157       .  T
C678        N680   1.158       .  T
C683        C684   1.413       .  A
C683        C688   1.413       .  A
C684        C685   1.409       .  A
C684        C689   1.453       .  S
C685        C686   1.416       .  A
C685        C692   1.452       .  S
C686        C687   1.415       .  A
C687        C688   1.412       .  A
C687        C690   1.451       .  S
C688        C691   1.451       .  S
C689        N696   1.157       .  T
C690        N695   1.157       .  T
C691        N693   1.157       .  T
C692        N694   1.157       .  T
C697        C698   1.414       .  A
C697        C702   1.414       .  A
C698        C699   1.410       .  A
C698        C703   1.452       .  S
C699        C700   1.415       .  A
C699        C706   1.453       .  S
C700        C701   1.416       .  A
C701        C702   1.412       .  A
C701        C704   1.452       .  S
C702        C705   1.452       .  S
C703        N710   1.157       .  T
C704        N709   1.158       .  T
C705        N707   1.157       .  T
C706        N708   1.158       .  T
C711        C712   1.416       .  A
C711        C716   1.416       .  A
C712        C713   1.414       .  A
C712        C717   1.451       .  S
C713        C714   1.412       .  A
C713        C720   1.451       .  S
C714        C715   1.413       .  A
C715        C716   1.409       .  A
C715        C718   1.453       .  S
C716        C719   1.452       .  S
C717        N724   1.157       .  T
C718        N723   1.157       .  T
C719        N721   1.157       .  T
C720        N722   1.157       .  T
C725        C726   1.414       .  A
C725        C730   1.415       .  A
C726        C727   1.413       .  A
C726        C731   1.451       .  S
C727        C728   1.414       .  A
C727        C734   1.452       .  S
C728        C729   1.415       .  A
C729        C730   1.408       .  A
C729        C732   1.453       .  S
C730        C733   1.453       .  S
C731        N738   1.157       .  T
C732        N737   1.157       .  T
C733        N735   1.157       .  T
C734        N736   1.157       .  T
C739        C740   1.414       .  A
C739        C744   1.414       .  A
C740        C741   1.412       .  A
C740        C745   1.452       .  S
C741        C742   1.415       .  A
C741        C748   1.451       .  S
C742        C743   1.415       .  A
C743        C744   1.412       .  A
C743        C746   1.451       .  S
C744        C747   1.452       .  S
C745        N752   1.157       .  T
C746        N751   1.157       .  T
C747        N749   1.158       .  T
C748        N750   1.157       .  T
C753        C754   1.418       .  A
C753        C758   1.418       .  A
C754        C755   1.412       .  A
C754        C759   1.451       .  S
C755        C756   1.411       .  A
C755        C762   1.452       .  S
C756        C757   1.412       .  A
C757        C758   1.410       .  A
C757        C760   1.453       .  S
C758        C761   1.452       .  S
C759        N766   1.157       .  T
C760        N765   1.157       .  T
C761        N763   1.157       .  T
C762        N764   1.157       .  T
C767        C768   1.413       .  A
C767        C772   1.416       .  A
C768        C769   1.410       .  A
C768        C773   1.451       .  S
C769        C770   1.413       .  A
C769        C776   1.451       .  S
C770        C771   1.414       .  A
C771        C772   1.411       .  A
C771        C774   1.452       .  S
C772        C775   1.453       .  S
C773        N780   1.157       .  T
C774        N779   1.158       .  T
C775        N777   1.158       .  T
C776        N778   1.157       .  T
C781        C782   1.416       .  A
C781        C786   1.416       .  A
C782        C783   1.412       .  A
C782        C787   1.451       .  S
C783        C784   1.413       .  A
C783        C790   1.452       .  S
C784        C785   1.412       .  A
C785        C786   1.408       .  A
C785        C788   1.452       .  S
C786        C789   1.453       .  S
C787        N794   1.158       .  T
C788        N793   1.157       .  T
C789        N791   1.157       .  T
C790        N792   1.157       .  T
C795        C796   1.414       .  A
C795        C800   1.414       .  A
C796        C797   1.411       .  A
C796        C801   1.452       .  S
C797        C798   1.415       .  A
C797        C804   1.452       .  S
C798        C799   1.416       .  A
C799        C800   1.412       .  A
C799        C802   1.452       .  S
C800        C803   1.452       .  S
C801        N808   1.157       .  T
C802        N807   1.158       .  T
C803        N805   1.157       .  T
C804        N806   1.157       .  T
C809        C810   1.414       .  A
C809        C814   1.414       .  A
C810        C811   1.415       .  A
C810        C815   1.451       .  S
C811        C812   1.419       .  A
C811        C818   1.451       .  S
C812        C813   1.419       .  A
C813        C814   1.410       .  A
C813        C816   1.453       .  S
C814        C817   1.453       .  S
C815        N822   1.157       .  T
C816        N821   1.158       .  T
C817        N819   1.157       .  T
C818        N820   1.158       .  T
C823        C824   1.413   1_565  A
C823        C828   1.413       .  A
C824        C825   1.411       .  A
C824        C829   1.452       .  S
C825        C826   1.414       .  A
C825        C832   1.452       .  S
C826        C827   1.412       .  A
C827        C828   1.409   1_545  A
C827        C830   1.452       .  S
C828        C831   1.451       .  S
C829        N836   1.157       .  T
C830        N835   1.157       .  T
C831        N833   1.157       .  T
C832        N834   1.157       .  T
C837        C838   1.417       .  A
C837        C842   1.417       .  A
C838        C839   1.412       .  A
C838        C843   1.452       .  S
C839        C840   1.413       .  A
C839        C846   1.452       .  S
C840        C841   1.413       .  A
C841        C842   1.410       .  A
C841        C844   1.453       .  S
C842        C845   1.452       .  S
C843        N850   1.158       .  T
C844        N849   1.157       .  T
C845        N847   1.158       .  T
C846        N848   1.157       .  T
C851        C852   1.418       .  A
C851        C856   1.418       .  A
C852        C853   1.411       .  A
C852        C857   1.452       .  S
C853        C854   1.414       .  A
C853        C860   1.452       .  S
C854        C855   1.414       .  A
C855        C856   1.413       .  A
C855        C858   1.452       .  S
C856        C859   1.451       .  S
C857        N864   1.157       .  T
C858        N863   1.157       .  T
C859        N861   1.158       .  T
C860        N862   1.157       .  T
C865        C866   1.414       .  A
C865        C870   1.412       .  A
C866        C867   1.411       .  A
C866        C871   1.452       .  S
C867        C868   1.416       .  A
C867        C874   1.452       .  S
C868        C869   1.416       .  A
C869        C870   1.410       .  A
C869        C872   1.451       .  S
C870        C873   1.452       .  S
C871        N878   1.158       .  T
C872        N877   1.157       .  T
C873        N875   1.157       .  T
C874        N876   1.157       .  T
C879        C880   1.414       .  A
C879        C884   1.415       .  A
C880        C881   1.413       .  A
C880        C885   1.452       .  S
C881        C882   1.416       .  A
C881        C888   1.452       .  S
C882        C883   1.416       .  A
C883        C884   1.411       .  A
C883        C886   1.452       .  S
C884        C887   1.453       .  S
C885        N892   1.157       .  T
C886        N891   1.157       .  T
C887        N889   1.158       .  T
C888        N890   1.157       .  T
C893        C894   1.415       .  A
C893        C898   1.414       .  A
C894        C895   1.409       .  A
C894        C899   1.453       .  S
C895        C896   1.417       .  A
C895        C902   1.453       .  S
C896        C897   1.417       .  A
C897        C898   1.414       .  A
C897        C900   1.451       .  S
C898        C901   1.452       .  S
C899        N906   1.157       .  T
C900        N905   1.157       .  T
C901        N903   1.157       .  T
C902        N904   1.157       .  T
C907        C908   1.413       .  A
C907        C912   1.416       .  A
C908        C909   1.412   1_455  A
C908        C913   1.451       .  S
C909        C910   1.415       .  A
C909        C916   1.451       .  S
C910        C911   1.416       .  A
C911        C912   1.413   1_655  A
C911        C914   1.452       .  S
C912        C915   1.453       .  S
C913        N920   1.157       .  T
C914        N919   1.158       .  T
C915        N917   1.158       .  T
C916        N918   1.157       .  T
C921        C922   1.414       .  A
C921        C926   1.415   1_565  A
C922        C923   1.411   1_565  A
C922        C927   1.451       .  S
C923        C924   1.414       .  A
C923        C930   1.451   1_545  S
C924        C925   1.415       .  A
C925        C926   1.412       .  A
C925        C928   1.451       .  S
C926        C929   1.453       .  S
C927        N934   1.157       .  T
C928        N933   1.157       .  T
C929        N931   1.158       .  T
C930        N932   1.157       .  T
C935        C936   1.415       .  A
C935        C940   1.415       .  A
C936        C937   1.412   1_455  A
C936        C941   1.451       .  S
C937        C938   1.413       .  A
C937        C944   1.451       .  S
C938        C939   1.415       .  A
C939        C940   1.410   1_655  A
C939        C942   1.453       .  S
C940        C943   1.453       .  S
C941        N948   1.157   1_565  T
C942        N947   1.157       .  T
C943        N945   1.158       .  T
C944        N946   1.157   1_565  T
C949        C950   1.415       .  A
C949        C954   1.415       .  A
C950        C951   1.412       .  A
C950        C955   1.453       .  S
C951        C952   1.416       .  A
C951        C958   1.452       .  S
C952        C953   1.415       .  A
C953        C954   1.411       .  A
C953        C956   1.452       .  S
C954        C957   1.452       .  S
C955        N962   1.158       .  T
C956        N961   1.157       .  T
C957        N959   1.157       .  T
C958        N960   1.158       .  T
C963        C964   1.415       .  A
C963        C968   1.416       .  A
C964        C965   1.410       .  A
C964        C969   1.452       .  S
C965        C966   1.413       .  A
C965        C972   1.452       .  S
C966        C967   1.413       .  A
C967        C968   1.407       .  A
C967        C970   1.453       .  S
C968        C971   1.453       .  S
C969        N976   1.157       .  T
C970        N975   1.158       .  T
C971        N973   1.157       .  T
C972        N974   1.157       .  T
C977        C978   1.411       .  A
C977        C982   1.411       .  A
C978        C979   1.412       .  A
C978        C983   1.452       .  S
C979        C980   1.417       .  A
C979        C986   1.451       .  S
C980        C981   1.418       .  A
C981        C982   1.409       .  A
C981        C984   1.452       .  S
C982        C985   1.453       .  S
C983        N990   1.157       .  T
C984        N989   1.157       .  T
C985        N987   1.158       .  T
C986        N988   1.157       .  T
C991        C992   1.414       .  A
C991        C996   1.413       .  A
C992        C993   1.410       .  A
C992        C997   1.453       .  S
C993        C994   1.417       .  A
C993       C1000   1.452       .  S
C994        C995   1.414       .  A
C995        C996   1.410       .  A
C995        C998   1.451   1_565  S
C996        C999   1.451       .  S
C997       N1004   1.158       .  T
C998       N1003   1.157       .  T
C999       N1001   1.157   1_565  T
C1000      N1002   1.158       .  T
C1005      C1006   1.416       .  A
C1005      C1010   1.414       .  A
C1006      C1007   1.411       .  A
C1006      C1011   1.453       .  S
C1007      C1008   1.414       .  A
C1007      C1014   1.451       .  S
C1008      C1009   1.415       .  A
C1009      C1010   1.410       .  A
C1009      C1012   1.452       .  S
C1010      C1013   1.452       .  S
C1011      N1018   1.157       .  T
C1012      N1017   1.157       .  T
C1013      N1015   1.157       .  T
C1014      N1016   1.157       .  T
C1019      C1020   1.415       .  A
C1019      C1024   1.415       .  A
C1020      C1021   1.411       .  A
C1020      C1025   1.452       .  S
C1021      C1022   1.414       .  A
C1021      C1028   1.452       .  S
C1022      C1023   1.415       .  A
C1023      C1024   1.412       .  A
C1023      C1026   1.452       .  S
C1024      C1027   1.452       .  S
C1025      N1032   1.157       .  T
C1026      N1031   1.158       .  T
C1027      N1029   1.157       .  T
C1028      N1030   1.157       .  T
C1033      C1034   1.415       .  A
C1033      C1038   1.415   1_545  A
C1034      C1035   1.412       .  A
C1034      C1039   1.452       .  S
C1035      C1036   1.414   1_545  A
C1035      C1042   1.452       .  S
C1036      C1037   1.415       .  A
C1037      C1038   1.411       .  A
C1037      C1040   1.453       .  S
C1038      C1041   1.451       .  S
C1039      N1046   1.157       .  T
C1040      N1045   1.157       .  T
C1041      N1043   1.157       .  T
C1042      N1044   1.157       .  T
C1047      C1048   1.415   1_565  A
C1047      C1052   1.414       .  A
C1048      C1049   1.408       .  A
C1048      C1053   1.453       .  S
C1049      C1050   1.414       .  A
C1049      C1056   1.453       .  S
C1050      C1051   1.414   1_545  A
C1051      C1052   1.412       .  A
C1051      C1054   1.451       .  S
C1052      C1055   1.451       .  S
C1053      N1060   1.157       .  T
C1054      N1059   1.157       .  T
C1055      N1057   1.157       .  T
C1056      N1058   1.157       .  T
C1061      C1062   1.415       .  A
C1061      C1066   1.414       .  A
C1062      C1063   1.410   1_455  A
C1062      C1067   1.452       .  S
C1063      C1064   1.415       .  A
C1063      C1070   1.453       .  S
C1064      C1065   1.415       .  A
C1065      C1066   1.411   1_655  A
C1065      C1068   1.452       .  S
C1066      C1069   1.452       .  S
C1067      N1074   1.158       .  T
C1068      N1073   1.157       .  T
C1069      N1071   1.157       .  T
C1070      N1072   1.158       .  T
C1075      C1076   1.415       .  A
C1075      C1080   1.414       .  A
C1076      C1077   1.410   1_545  A
C1076      C1081   1.452   1_545  S
C1077      C1078   1.415       .  A
C1077      C1084   1.453       .  S
C1078      C1079   1.414   1_565  A
C1079      C1080   1.413       .  A
C1079      C1082   1.451       .  S
C1080      C1083   1.451       .  S
C1081      N1088   1.157       .  T
C1082      N1087   1.157       .  T
C1083      N1085   1.157       .  T
C1084      N1086   1.157       .  T
C1089      C1090   1.415   1_545  A
C1089      C1094   1.416       .  A
C1090      C1091   1.409       .  A
C1090      C1095   1.452       .  S
C1091      C1092   1.414   1_554  A
C1091      C1098   1.453       .  S
C1092      C1093   1.412   1_565  A
C1093      C1094   1.409   1_556  A
C1093      C1096   1.452       .  S
C1094      C1097   1.452       .  S
C1095      N1102   1.157       .  T
C1096      N1101   1.157       .  T
C1097      N1099   1.157       .  T
C1098      N1100   1.157       .  T
C1103      C1104   1.413   1_545  A
C1103      C1108   1.414       .  A
C1104      C1105   1.409   1_565  A
C1104      C1109   1.452       .  S
C1105      C1106   1.414       .  A
C1105      C1112   1.452       .  S
C1106      C1107   1.413       .  A
C1107      C1108   1.411       .  A
C1107      C1110   1.451       .  S
C1108      C1111   1.451       .  S
C1109      N1116   1.157       .  T
C1110      N1115   1.157       .  T
C1111      N1113   1.157       .  T
C1112      N1114   1.157   1_545  T
C1117      C1118   1.419   1_554  A
C1117      C1122   1.419   1_545  A
C1118      C1119   1.412       .  A
C1118      C1123   1.451       .  S
C1119      C1120   1.412   1_545  A
C1119      C1126   1.453       .  S
C1120      C1121   1.412       .  A
C1121      C1122   1.411   1_556  A
C1121      C1124   1.452       .  S
C1122      C1125   1.452       .  S
C1123      N1130   1.157       .  T
C1124      N1129   1.157   1_556  T
C1125      N1127   1.157       .  T
C1126      N1128   1.158       .  T
C1131      C1132   1.414       .  A
C1131      C1136   1.414       .  A
C1132      C1133   1.411   1_655  A
C1132      C1137   1.452       .  S
C1133      C1134   1.414       .  A
C1133      C1140   1.452       .  S
C1134      C1135   1.414       .  A
C1135      C1136   1.410   1_455  A
C1135      C1138   1.452       .  S
C1136      C1139   1.452       .  S
C1137      N1144   1.157   1_545  T
C1138      N1143   1.157       .  T
C1139      N1141   1.158       .  T
C1140      N1142   1.157   1_545  T
C1145      C1146   1.415       .  A
C1145      C1150   1.416       .  A
C1146      C1147   1.411       .  A
C1146      C1151   1.450       .  S
C1147      C1148   1.413       .  A
C1147      C1154   1.452       .  S
C1148      C1149   1.413       .  A
C1149      C1150   1.412       .  A
C1149      C1152   1.452       .  S
C1150      C1153   1.452       .  S
C1151      N1158   1.157       .  T
C1152      N1157   1.157       .  T
C1153      N1155   1.157       .  T
C1154      N1156   1.157       .  T
C1159      C1160   1.415       .  A
C1159      C1164   1.414       .  A
C1160      C1161   1.409       .  A
C1160      C1165   1.453       .  S
C1161      C1162   1.415       .  A
C1161      C1168   1.453       .  S
C1162      C1163   1.415       .  A
C1163      C1164   1.411       .  A
C1163      C1166   1.452       .  S
C1164      C1167   1.451       .  S
C1165      N1172   1.157       .  T
C1166      N1171   1.157       .  T
C1167      N1169   1.157       .  T
C1168      N1170   1.158       .  T
C1173      C1174   1.416       .  A
C1173      C1178   1.415       .  A
C1174      C1175   1.412       .  A
C1174      C1179   1.452       .  S
C1175      C1176   1.414       .  A
C1175      C1182   1.452       .  S
C1176      C1177   1.412       .  A
C1177      C1178   1.410       .  A
C1177      C1180   1.452       .  S
C1178      C1181   1.451       .  S
C1179      N1186   1.157       .  T
C1180      N1185   1.157       .  T
C1181      N1183   1.157       .  T
C1182      N1184   1.158       .  T
C1187      C1188   1.415       .  A
C1187      C1192   1.414       .  A
C1188      C1189   1.411       .  A
C1188      C1193   1.453       .  S
C1189      C1190   1.417       .  A
C1189      C1196   1.452       .  S
C1190      C1191   1.414       .  A
C1191      C1192   1.411       .  A
C1191      C1194   1.452       .  S
C1192      C1195   1.452       .  S
C1193      N1200   1.158       .  T
C1194      N1199   1.157       .  T
C1195      N1197   1.157       .  T
C1196      N1198   1.158       .  T
C1201      C1202   1.416       .  A
C1201      C1206   1.414       .  A
C1202      C1203   1.412   1_655  A
C1202      C1207   1.452       .  S
C1203      C1204   1.415       .  A
C1203      C1210   1.453       .  S
C1204      C1205   1.415       .  A
C1205      C1206   1.411   1_455  A
C1205      C1208   1.451       .  S
C1206      C1209   1.452       .  S
C1207      N1214   1.158       .  T
C1208      N1213   1.158       .  T
C1209      N1211   1.157       .  T
C1210      N1212   1.157       .  T
C1215      C1216   1.416       .  A
C1215      C1220   1.415       .  A
C1216      C1217   1.413       .  A
C1216      C1221   1.450       .  S
C1217      C1218   1.413       .  A
C1217      C1224   1.452       .  S
C1218      C1219   1.415       .  A
C1219      C1220   1.407       .  A
C1219      C1222   1.453       .  S
C1220      C1223   1.453       .  S
C1221      N1228   1.157       .  T
C1222      N1227   1.157       .  T
C1223      N1225   1.157       .  T
C1224      N1226   1.157       .  T
C1229      C1230   1.414       .  A
C1229      C1234   1.413       .  A
C1230      C1231   1.412       .  A
C1230      C1235   1.450       .  S
C1231      C1232   1.412       .  A
C1231      C1238   1.451       .  S
C1232      C1233   1.415       .  A
C1233      C1234   1.408       .  A
C1233      C1236   1.453       .  S
C1234      C1237   1.453       .  S
C1235      N1242   1.157       .  T
C1236      N1241   1.157       .  T
C1237      N1239   1.157       .  T
C1238      N1240   1.157       .  T
C1243      C1244   1.414   1_556  A
C1243      C1248   1.413       .  A
C1244      C1245   1.411       .  A
C1244      C1249   1.452       .  S
C1245      C1246   1.416       .  A
C1245      C1252   1.452       .  S
C1246      C1247   1.416   1_554  A
C1247      C1248   1.410       .  A
C1247      C1250   1.452       .  S
C1248      C1251   1.452       .  S
C1249      N1256   1.157       .  T
C1250      N1255   1.157       .  T
C1251      N1253   1.157       .  T
C1252      N1254   1.157       .  T
C1257      C1258   1.413       .  A
C1257      C1262   1.414       .  A
C1258      C1259   1.412       .  A
C1258      C1263   1.451       .  S
C1259      C1260   1.417       .  A
C1259      C1266   1.452       .  S
C1260      C1261   1.416       .  A
C1261      C1262   1.412       .  A
C1261      C1264   1.452       .  S
C1262      C1265   1.452       .  S
C1263      N1270   1.157       .  T
C1264      N1269   1.158       .  T
C1265      N1267   1.157       .  T
C1266      N1268   1.157       .  T
C1271      C1272   1.417       .  A
C1271      C1276   1.417       .  A
C1272      C1273   1.409       .  A
C1272      C1277   1.453       .  S
C1273      C1274   1.414       .  A
C1273      C1280   1.453       .  S
C1274      C1275   1.412       .  A
C1275      C1276   1.413       .  A
C1275      C1278   1.451       .  S
C1276      C1279   1.451       .  S
C1277      N1284   1.157       .  T
C1278      N1283   1.157       .  T
C1279      N1281   1.157       .  T
C1280      N1282   1.157       .  T
C1285      C1286   1.418   1_554  A
C1285      C1290   1.416       .  A
C1286      C1287   1.411       .  A
C1286      C1291   1.451       .  S
C1287      C1288   1.412       .  A
C1287      C1294   1.453       .  S
C1288      C1289   1.414       .  A
C1289      C1290   1.411   1_556  A
C1289      C1292   1.452       .  S
C1290      C1293   1.452       .  S
C1291      N1298   1.157       .  T
C1292      N1297   1.157       .  T
C1293      N1295   1.157       .  T
C1294      N1296   1.157       .  T
C1299      C1300   1.411       .  A
C1299      C1304   1.412       .  A
C1300      C1301   1.411   1_655  A
C1300      C1305   1.452       .  S
C1301      C1302   1.418       .  A
C1301      C1308   1.451       .  S
C1302      C1303   1.419       .  A
C1303      C1304   1.411   1_455  A
C1303      C1306   1.452       .  S
C1304      C1307   1.453       .  S
C1305      N1312   1.157       .  T
C1306      N1311   1.158       .  T
C1307      N1309   1.158       .  T
C1308      N1310   1.157       .  T
