geometry optimzed in LAMMPS
_audit_creation_date              2020-12-01 
_audit_creation_method            'lammps2cif' 
_symmetry_space_group_name_H-M    'P1' 
_symmetry_Int_Tables_number       1 
_symmetry_cell_setting            triclinic 
loop_ 
_symmetry_equiv_pos_as_xyz 
  x,y,z 
_cell_length_a                    43.28969406 
_cell_length_b                    43.35884672372802 
_cell_length_c                    59.49756193522632 
_cell_angle_alpha                 89.29727618049702 
_cell_angle_beta                  90.52556681655105 
_cell_angle_gamma                 120.07494913569138 
loop_ 
_atom_site_label 
_atom_site_type_symbol 
_atom_site_fract_x 
_atom_site_fract_y 
_atom_site_fract_z 
_atom_site_charge 
O1          O  0.41337298  0.23833936  0.07640407    -0.74300
O2          O  0.32663012  0.24131742  0.08205217    -0.74400
O3          O  0.37801961  0.26174951  0.05039576    -0.74400
O4          O  0.36208684  0.21654066  0.10794963    -0.74500
O5          O  0.39143222  0.26955775  0.12430922    -0.74400
O6          O  0.40911874  0.31553721  0.06588088    -0.74400
O7          O  0.35717757  0.29511446  0.09744647    -0.74400
O8          O  0.44284682  0.29155271  0.09270742    -0.74400
Ni9        Ni  0.36878528  0.23759358  0.07867835     1.25400
Ni10       Ni  0.40102841  0.29480482  0.09575763     1.25400
C11         C  0.44253640  0.26497164  0.08344592     0.87800
C12         C  0.32784694  0.26921813  0.09015613     0.87800
C13         C  0.39712615  0.29562584  0.04849726     0.87800
C14         C  0.37520299  0.23528948  0.12561394     0.88000
O15         O  0.32965648  0.24470422  0.92650402    -0.74300
O16         O  0.41640933  0.24121669  0.92155120    -0.74400
O17         O  0.38695174  0.26307810  0.95304300    -0.74400
O18         O  0.35749523  0.22108558  0.89515382    -0.74500
O19         O  0.38461320  0.27486870  0.87905667    -0.74400
O20         O  0.41313285  0.31775171  0.93795666    -0.74400
O21         O  0.44280722  0.29592300  0.90656137    -0.74400
O22         O  0.35684665  0.29872718  0.91057290    -0.74400
Ni23       Ni  0.37176940  0.24055792  0.92455800     1.25400
Ni24       Ni  0.40042250  0.29867647  0.90786194     1.25400
C25         C  0.32939276  0.27278836  0.91967155     0.87800
C26         C  0.44428555  0.26889480  0.91391431     0.87800
C27         C  0.40371508  0.29693633  0.95519714     0.87800
C28         C  0.36513630  0.24073789  0.87754254     0.88000
O29         O  0.10754323  0.30064234  0.07582654    -0.74300
O30         O  0.19740010  0.30357701  0.08212293    -0.74400
O31         O  0.14593629  0.28158574  0.05027296    -0.74400
O32         O  0.15880309  0.32431613  0.10757205    -0.74500
O33         O  0.13146491  0.27071424  0.12398813    -0.74400
O34         O  0.11729878  0.22707933  0.06561367    -0.74400
O35         O  0.16892579  0.24947502  0.09776720    -0.74400
O36         O  0.08011817  0.24675186  0.09189586    -0.74400
Ni37       Ni  0.15355196  0.30445470  0.07843948     1.25400
Ni38       Ni  0.12364782  0.24660514  0.09547906     1.25400
C39         C  0.07900395  0.27296332  0.08272832     0.87800
C40         C  0.19765298  0.27621851  0.09042089     0.87800
C41         C  0.12869489  0.24773474  0.04832678     0.87800
C42         C  0.14623927  0.30484364  0.12516583     0.88000
O43         O  0.20040563  0.30943153  0.92722035    -0.74300
O44         O  0.11134953  0.30916260  0.92318194    -0.74400
O45         O  0.14297287  0.28736986  0.95387846    -0.74400
O46         O  0.17035272  0.33315523  0.89655621    -0.74500
O47         O  0.14446614  0.28026631  0.87987477    -0.74400
O48         O  0.11759100  0.23374730  0.93794890    -0.74400
O49         O  0.08639398  0.25588301  0.90708767    -0.74400
O50         O  0.17407625  0.25647506  0.91060187    -0.74400
Ni51       Ni  0.15707464  0.31174848  0.92574137     1.25400
Ni52       Ni  0.12965182  0.25479153  0.90822215     1.25400
C53         C  0.20138944  0.28220077  0.91986887     0.87800
C54         C  0.08385089  0.28177689  0.91496481     0.87800
C55         C  0.12678526  0.25340786  0.95546511     0.87800
C56         C  0.16297143  0.31447792  0.87875225     0.88000
O57         O  0.29388184  0.21270864  0.74533005    -0.74300
O58         O  0.29561707  0.12497318  0.74728456    -0.74400
O59         O  0.27398564  0.15780012  0.71721540    -0.74400
O60         O  0.31723958  0.18193874  0.77513338    -0.74500
O61         O  0.26364522  0.15452906  0.79125968    -0.74400
O62         O  0.21945629  0.13007932  0.73220341    -0.74400
O63         O  0.24155600  0.09810459  0.76276280    -0.74400
O64         O  0.23990925  0.18471559  0.76092617    -0.74400
Ni65       Ni  0.29708743  0.17011624  0.74570837     1.25400
Ni66       Ni  0.23923465  0.14070007  0.76240721     1.25400
C67         C  0.26626665  0.21292166  0.75279602     0.87800
C68         C  0.26833019  0.09682548  0.75505311     0.87800
C69         C  0.24006038  0.14138148  0.71499280     0.87800
C70         C  0.29785888  0.17388557  0.79271059     0.88000
O71         O  0.29154771  0.11993935  0.59437346    -0.74300
O72         O  0.29372932  0.20903407  0.58617412    -0.74400
O73         O  0.27235406  0.15944699  0.61911778    -0.74400
O74         O  0.31426510  0.16944345  0.56150587    -0.74500
O75         O  0.26034717  0.14193169  0.54564314    -0.74400
O76         O  0.21749946  0.12945635  0.60450445    -0.74400
O77         O  0.23881899  0.18000760  0.57169290    -0.74400
O78         O  0.23750808  0.09187278  0.57859241    -0.74400
Ni79       Ni  0.29488385  0.16558358  0.59077912     1.25400
Ni80       Ni  0.23662893  0.13494448  0.57444543     1.25400
C81         C  0.26395159  0.09119423  0.58777820     0.87800
C82         C  0.26591549  0.20893939  0.57841114     0.87800
C83         C  0.23845477  0.14253756  0.62150061     0.87800
C84         C  0.29448909  0.15611694  0.54416286     0.88000
O85         O  0.23422992  0.34419429  0.74612054    -0.74300
O86         O  0.23278206  0.43179577  0.74939243    -0.74400
O87         O  0.25439210  0.40120114  0.71876995    -0.74400
O88         O  0.21102393  0.37346085  0.77637424    -0.74500
O89         O  0.26452870  0.40020975  0.79286460    -0.74400
O90         O  0.30885215  0.42672144  0.73407309    -0.74400
O91         O  0.28715120  0.45782572  0.76472124    -0.74400
O92         O  0.28797986  0.37073151  0.76237542    -0.74400
Ni93       Ni  0.23121629  0.38683799  0.74712781     1.25400
Ni94       Ni  0.28905055  0.41492499  0.76415818     1.25400
C95         C  0.26163166  0.34329148  0.75366166     0.87800
C96         C  0.26029180  0.45952278  0.75718714     0.87800
C97         C  0.28831927  0.41768991  0.71674133     0.87800
C98         C  0.23027344  0.38126795  0.79410354     0.88000
O99         O  0.23277667  0.42810884  0.59506789    -0.74300
O100        O  0.23087116  0.33894580  0.58944334    -0.74400
O101        O  0.25281217  0.39041026  0.62129394    -0.74400
O102        O  0.20944133  0.37742398  0.56334635    -0.74500
O103        O  0.26310764  0.40480272  0.54736694    -0.74400
O104        O  0.30723066  0.41966164  0.60620438    -0.74400
O105        O  0.28516663  0.36775495  0.57440350    -0.74400
O106        O  0.28650721  0.45592961  0.57910080    -0.74400
Ni107      Ni  0.22956179  0.38249198  0.59279708     1.25400
Ni108      Ni  0.28739194  0.41280017  0.57613280     1.25400
C109        C  0.26034965  0.45678334  0.58821765     0.87800
C110        C  0.25815699  0.33876729  0.58129401     0.87800
C111        C  0.28674677  0.40871154  0.62345810     0.87800
C112        C  0.22893298  0.39018984  0.54583732     0.88000
O113        O  0.10936748  0.33653204  0.25716745    -0.74300
O114        O  0.19878917  0.42412574  0.25379752    -0.74400
O115        O  0.14630444  0.39206751  0.28460827    -0.74400
O116        O  0.16148362  0.36661968  0.22640664    -0.74500
O117        O  0.13443467  0.39366823  0.21060494    -0.74400
O118        O  0.11830000  0.41903432  0.26984921    -0.74400
O119        O  0.17076476  0.45084569  0.23882137    -0.74400
O120        O  0.08243650  0.36402470  0.24172337    -0.74400
Ni121      Ni  0.15517093  0.37906551  0.25596087     1.25400
Ni122      Ni  0.12572407  0.40804053  0.23958848     1.25400
C123        C  0.08106538  0.33621822  0.25025136     0.87800
C124        C  0.19909832  0.45227308  0.24653352     0.87800
C125        C  0.12892263  0.40846487  0.28696657     0.87800
C126        C  0.14891006  0.37409494  0.20897917     0.88000
O127        O  0.19701490  0.42839987  0.41112826    -0.74300
O128        O  0.11107577  0.33713500  0.41664671    -0.74400
O129        O  0.14083449  0.38800867  0.38428368    -0.74400
O130        O  0.16924579  0.37756534  0.44337889    -0.74500
O131        O  0.14094715  0.40357915  0.45797245    -0.74400
O132        O  0.11325657  0.41571536  0.39764364    -0.74400
O133        O  0.08361407  0.36461389  0.43026154    -0.74400
O134        O  0.16853152  0.45436047  0.42551431    -0.74400
Ni135      Ni  0.15542636  0.38169607  0.41342868     1.25400
Ni136      Ni  0.12541999  0.41031870  0.42841136     1.25400
C137        C  0.19667333  0.45651880  0.41731530     0.87800
C138        C  0.08269706  0.33611069  0.42388869     0.87800
C139        C  0.12342620  0.40428730  0.38104948     0.87800
C140        C  0.16123119  0.38991411  0.46037672     0.88000
O141        O  0.41693710  0.20711512  0.25841596    -0.74300
O142        O  0.32732090  0.11924248  0.25750072    -0.74400
O143        O  0.38212695  0.15234562  0.28702309    -0.74400
O144        O  0.36276847  0.17625999  0.22884910    -0.74500
O145        O  0.38902148  0.14903872  0.21296605    -0.74400
O146        O  0.40919047  0.12507555  0.27216455    -0.74400
O147        O  0.35471719  0.09274159  0.24224934    -0.74400
O148        O  0.44307095  0.17944055  0.24296307    -0.74400
Ni149      Ni  0.37110678  0.16450656  0.25844129     1.25400
Ni150      Ni  0.39970708  0.13540872  0.24195005     1.25400
C151        C  0.44487994  0.20733179  0.25119885     0.87800
C152        C  0.32661060  0.09115848  0.25016777     0.87800
C153        C  0.39991325  0.13625884  0.28927861     0.87800
C154        C  0.37437414  0.16849731  0.21137316     0.88000
O155        O  0.32834052  0.12153104  0.40931282    -0.74300
O156        O  0.41721663  0.20861519  0.41736868    -0.74400
O157        O  0.38801927  0.15977302  0.38452857    -0.74400
O158        O  0.35624532  0.17029163  0.44205363    -0.74500
O159        O  0.38082500  0.14105709  0.45814629    -0.74400
O160        O  0.41071531  0.12795056  0.39959316    -0.74400
O161        O  0.44123186  0.17777762  0.43202000    -0.74400
O162        O  0.35246526  0.09171813  0.42538451    -0.74400
Ni163      Ni  0.37175115  0.16627644  0.41281349     1.25400
Ni164      Ni  0.39728483  0.13371371  0.42946953     1.25400
C165        C  0.32608669  0.09224511  0.41599167     0.87800
C166        C  0.44422896  0.20722973  0.42518536     0.87800
C167        C  0.40365292  0.14157313  0.38242914     0.87800
C168        C  0.36177955  0.15617188  0.45949472     0.88000
C169        C  0.41068799  0.13285929  0.31225241    -0.05400
C170        C  0.38884914  0.10213175  0.32493486    -0.32800
C171        C  0.38938440  0.10346180  0.34851760     0.36400
C172        C  0.41200909  0.13578760  0.35949263    -0.05700
C173        C  0.43631681  0.16541386  0.34680994    -0.32700
C174        C  0.43599771  0.16400614  0.32332423     0.36300
H175        H  0.36887133  0.07822363  0.31660879     0.16700
O176        O  0.36511129  0.07420010  0.36054717    -0.60200
H177        H  0.45348046  0.19056605  0.35503519     0.16700
O178        O  0.45750445  0.19449184  0.31128540    -0.60300
H179        H  0.47939571  0.19340332  0.30809905     0.43700
H180        H  0.34327702  0.07619512  0.36114109     0.43700
C181        C  0.29257300  0.05836222  0.41347500    -0.05400
C182        C  0.26010759  0.05679359  0.41777158    -0.32800
C183        C  0.22838277  0.02401251  0.41851336     0.36400
C184        C  0.22913114  0.49199395  0.41520788    -0.05700
C185        C  0.26126607  0.99408638  0.40916589    -0.32700
C186        C  0.29297859  0.02683145  0.40875833     0.36300
H187        H  0.25951049  0.08088820  0.42153344     0.16700
O188        O  0.19824248  0.52293641  0.42703870    -0.60200
H189        H  0.26215063  0.47067086  0.40411415     0.16700
O190        O  0.32426417  0.02782282  0.40351026    -0.60300
H191        H  0.33166980  0.02055791  0.41749525     0.43700
H192        H  0.18732736  0.02560069  0.40911363     0.43700
C193        C  0.04778900  0.30222892  0.42465074    -0.05400
C194        C  0.01724116  0.30331934  0.43147500    -0.32800
C195        C  0.48355972  0.27264641  0.43181052     0.36400
C196        C  0.47969778  0.23977964  0.42562243    -0.05700
C197        C  0.50999989  0.23825828  0.41899884    -0.32700
C198        C  0.04373725  0.26920124  0.41808944     0.36300
H199        H  0.01921526  0.32820129  0.43642155     0.16700
O200        O  0.45457012  0.27510999  0.43833243    -0.60200
H201        H  0.50732414  0.21313666  0.41385137     0.16700
O202        O  0.07231783  0.26672860  0.41067612    -0.60300
H203        H  0.07233989  0.26964616  0.39411417     0.43700
H204        H  0.45206567  0.26963911  0.45467274     0.43700
C205        C  0.23199925  0.48737158  0.24780863    -0.05400
C206        C  0.22890897  0.01836938  0.25139253    -0.32800
C207        C  0.25939227  0.05223389  0.25274158     0.36400
C208        C  0.29349048  0.05592180  0.25082993    -0.05700
C209        C  0.29621651  0.02502632  0.24894574    -0.32700
C210        C  0.26582604  0.99120861  0.24803579     0.36300
H211        H  0.20331423  0.51573842  0.25279689     0.16700
O212        O  0.25540602  0.08146928  0.25515143    -0.60200
H213        H  0.32212542  0.02699421  0.24797856     0.16700
O214        O  0.26978196  0.46162478  0.24338790    -0.60300
H215        H  0.27077741  0.45929166  0.22688824     0.43700
H216        H  0.25267813  0.08323462  0.27152950     0.43700
C217        C  0.47981258  0.24008868  0.25224644    -0.05400
C218        C  0.48143395  0.27313672  0.25259709    -0.32800
C219        C  0.01427943  0.30468434  0.25228192     0.36400
C220        C  0.04622145  0.30341564  0.25188131    -0.05700
C221        C  0.04462570  0.27035686  0.25249553    -0.32700
C222        C  0.51176252  0.23879932  0.25253960     0.36300
H223        H  0.45717532  0.27461287  0.25264600     0.16700
O224        O  0.01483215  0.33658074  0.25297779    -0.60200
H225        H  0.06888852  0.26888684  0.25245291     0.16700
O226        O  0.51122488  0.20689248  0.25348870    -0.60300
H227        H  0.51589821  0.20250348  0.23790763     0.43700
H228        H  0.00911241  0.34074849  0.23745276     0.43700
C229        C  0.11996149  0.41283284  0.31008967    -0.05400
C230        C  0.09326669  0.38254793  0.32120448    -0.32800
C231        C  0.09163012  0.38088833  0.34473297     0.36400
C232        C  0.11645071  0.41005512  0.35749840    -0.05700
C233        C  0.14127636  0.44150687  0.34633668    -0.32700
C234        C  0.14332120  0.44292280  0.32273366     0.36300
H235        H  0.07563100  0.35892612  0.31168059     0.16700
O236        O  0.06745138  0.34968181  0.35515620    -0.60200
H237        H  0.16120769  0.46381220  0.35594169     0.16700
O238        O  0.16998242  0.47267651  0.31230590    -0.60300
H239        H  0.19031180  0.46828555  0.31113229     0.43700
H240        H  0.07883738  0.33472039  0.35549965     0.43700
C241        C  0.17753105  0.38950270  0.48258284    -0.05400
C242        C  0.20988897  0.38904999  0.48292703    -0.32800
C243        C  0.22688240  0.38929447  0.50319415     0.36400
C244        C  0.21137423  0.38922346  0.52389907    -0.05700
C245        C  0.17889407  0.38947884  0.52362835    -0.32700
C246        C  0.16239260  0.39029355  0.50328578     0.36300
H247        H  0.22257155  0.38909554  0.46730428     0.16700
O248        O  0.25868932  0.38960402  0.50248814    -0.60200
H249        H  0.16657153  0.38990032  0.53930235     0.16700
O250        O  0.13112953  0.39106401  0.50390754    -0.60300
H251        H  0.13847742  0.41652179  0.50586079     0.43700
H252        H  0.25208568  0.36417700  0.50197900     0.43700
C253        C  0.30248065  0.42505737  0.69366042    -0.05400
C254        C  0.31056465  0.40090620  0.68343557    -0.32800
C255        C  0.30963657  0.39779841  0.65989190     0.36400
C256        C  0.30100045  0.41932389  0.64642967    -0.05700
C257        C  0.29665316  0.44592365  0.65663053    -0.32700
C258        C  0.29731434  0.44886204  0.68006102     0.36300
H259        H  0.31395361  0.38198470  0.69370291     0.16700
O260        O  0.31418776  0.37172320  0.65034985    -0.60200
H261        H  0.28943984  0.46232171  0.64648651     0.16700
O262        O  0.28872464  0.47225552  0.68955017    -0.60300
H263        H  0.31196847  0.49394209  0.69274158     0.43700
H264        H  0.28997571  0.35037780  0.64974671     0.43700
C265        C  0.26272692  0.05673777  0.59009725    -0.05400
C266        C  0.29461918  0.05582504  0.58986079    -0.32800
C267        C  0.29404261  0.02332888  0.58947425     0.36400
C268        C  0.26194452  0.49135375  0.59046247    -0.05700
C269        C  0.22932646  0.99194681  0.59129780    -0.32700
C270        C  0.22988608  0.02443335  0.59115549     0.36300
H271        H  0.32010456  0.08036590  0.58913170     0.16700
O272        O  0.32666130  0.52387078  0.59060779    -0.60200
H273        H  0.20458258  0.46773812  0.59190592     0.16700
O274        O  0.19817171  0.02428629  0.59233324    -0.60300
H275        H  0.18819901  0.01899182  0.57687582     0.43700
H276        H  0.33368275  0.02852891  0.57307345     0.43700
C277        C  0.25933801  0.30507535  0.58003066    -0.05400
C278        C  0.29225301  0.30680244  0.57622362    -0.32800
C279        C  0.29484119  0.27587656  0.57557134     0.36400
C280        C  0.26408750  0.24219778  0.57814886    -0.05700
C281        C  0.23107019  0.24029756  0.58161280    -0.32700
C282        C  0.22855128  0.27125701  0.58275143     0.36300
H283        H  0.31639312  0.33233259  0.57407995     0.16700
O284        O  0.32745118  0.27887413  0.57179611    -0.60200
H285        H  0.20712282  0.21465758  0.58399061     0.16700
O286        O  0.19589808  0.26800070  0.58677818    -0.60300
H287        H  0.18524580  0.26642757  0.57171338     0.43700
H288        H  0.33953073  0.28442245  0.58664693     0.43700
C289        C  0.31175423  0.15625457  0.52249342    -0.05400
C290        C  0.29614807  0.15692221  0.50186715    -0.32800
C291        C  0.31227491  0.15715272  0.48140934     0.36400
C292        C  0.34463707  0.15640273  0.48114954    -0.05700
C293        C  0.35965887  0.15465332  0.50177700    -0.32700
C294        C  0.34379809  0.15492739  0.52223904     0.36300
H295        H  0.27141667  0.15750127  0.50156570     0.16700
O296        O  0.29567650  0.15747005  0.46173091    -0.60200
H297        H  0.38400537  0.15334789  0.50209280     0.16700
O298        O  0.35911196  0.15230794  0.54192266    -0.60300
H299        H  0.37867017  0.17686798  0.54504992     0.43700
H300        H  0.28038048  0.13203966  0.45769014     0.43700
C301        C  0.26199952  0.49442427  0.75701897    -0.05400
C302        C  0.29492841  0.02559108  0.75433934    -0.32800
C303        C  0.29773612  0.05916201  0.75378029     0.36400
C304        C  0.26674965  0.06192655  0.75500843    -0.05700
C305        C  0.23327364  0.03053276  0.75652801    -0.32700
C306        C  0.23047609  0.99698631  0.75696927     0.36300
H307        H  0.31977308  0.52433939  0.75573403     0.16700
O308        O  0.33090902  0.08896943  0.75218885    -0.60200
H309        H  0.20899410  0.03189633  0.75734986     0.16700
O310        O  0.19775744  0.46723634  0.75863007    -0.60300
H311        H  0.19321899  0.46173247  0.77490700     0.43700
H312        H  0.33867836  0.09611655  0.76792950     0.43700
C313        C  0.26467825  0.24610426  0.75231397    -0.05400
C314        C  0.29634389  0.27895974  0.75017940    -0.32800
C315        C  0.29571327  0.31082014  0.75044048     0.36400
C316        C  0.26295558  0.31014261  0.75257872    -0.05700
C317        C  0.23125165  0.27737727  0.75430764    -0.32700
C318        C  0.23189728  0.24552510  0.75449691     0.36300
H319        H  0.32180032  0.28005871  0.74864916     0.16700
O320        O  0.32729904  0.34244378  0.74857157    -0.60200
H321        H  0.20590030  0.27644218  0.75608133     0.16700
O322        O  0.20020300  0.21402267  0.75644306    -0.60300
H323        H  0.19513849  0.21069620  0.77279371     0.43700
H324        H  0.33018163  0.34809936  0.73225891     0.43700
C325        C  0.22611974  0.13847534  0.69193891    -0.05400
C326        C  0.21168548  0.10626012  0.68017391    -0.32800
C327        C  0.21100876  0.10635027  0.65648330     0.36400
C328        C  0.22484893  0.13891119  0.64457372    -0.05700
C329        C  0.23551834  0.17034935  0.65649209    -0.32700
C330        C  0.23610347  0.17029504  0.67995122     0.36300
H331        H  0.20424084  0.08164923  0.68917379     0.16700
O332        O  0.20016105  0.07513467  0.64520737    -0.60200
H333        H  0.24662737  0.19561221  0.64756690     0.16700
O334        O  0.25062039  0.20223062  0.69095390    -0.60300
H335        H  0.22997973  0.20307651  0.69738339     0.43700
H336        H  0.22178617  0.07286628  0.64400088     0.43700
C337        C  0.21203058  0.36622131  0.81589314    -0.05400
C338        C  0.18000157  0.33318389  0.81602272    -0.32800
C339        C  0.16313837  0.31646819  0.83621655     0.36400
C340        C  0.17787080  0.33292679  0.85690813    -0.05700
C341        C  0.20888830  0.36689236  0.85671713    -0.32700
C342        C  0.22596264  0.38342802  0.83648708     0.36300
H343        H  0.16842094  0.31959965  0.80037343     0.16700
O344        O  0.13197640  0.28429808  0.83547912    -0.60200
H345        H  0.22065906  0.38032240  0.87237303     0.16700
O346        O  0.25627089  0.41629576  0.83708946    -0.60300
H347        H  0.24784417  0.43364780  0.83515997     0.43700
H348        H  0.13938456  0.26632482  0.83309815     0.43700
C349        C  0.14948428  0.35764674  0.18721160    -0.05400
C350        C  0.15069362  0.32571247  0.18756154    -0.32800
C351        C  0.14956861  0.30813927  0.16765694     0.36400
C352        C  0.14778748  0.32259791  0.14672622    -0.05700
C353        C  0.14692102  0.35467172  0.14630761    -0.32700
C354        C  0.14719271  0.37182915  0.16625097     0.36300
H355        H  0.15184444  0.31379920  0.20342962     0.16700
O356        O  0.15033820  0.27692906  0.16892037    -0.60200
H357        H  0.14526192  0.36621004  0.13040131     0.16700
O358        O  0.14601014  0.40281669  0.16498136    -0.60300
H359        H  0.12034729  0.39516538  0.16313893     0.43700
H360        H  0.17595141  0.28413411  0.16777229     0.43700
C361        C  0.12082085  0.23792973  0.97817521    -0.05400
C362        C  0.09123875  0.23318012  0.99044165    -0.32800
C363        C  0.09126393  0.23105366  0.01396837     0.36400
C364        C  0.12122035  0.23382253  0.02537240    -0.05700
C365        C  0.14927095  0.23525633  0.01298610    -0.32700
C366        C  0.14934293  0.23759836  0.98949518     0.36300
H367        H  0.06969430  0.23455137  0.98195062     0.16700
O368        O  0.06426659  0.23134974  0.02569083    -0.60200
H369        H  0.17285652  0.23842165  0.02158669     0.16700
O370        O  0.17899165  0.24319723  0.97788115    -0.60300
H371        H  0.19554461  0.26936080  0.97817672     0.43700
H372        H  0.04920293  0.20659317  0.03135286     0.43700
C373        C  0.47939214  0.27119716  0.91440027    -0.05400
C374        C  0.50946074  0.30368679  0.92040138    -0.32800
C375        C  0.04353031  0.30759910  0.92092231     0.36400
C376        C  0.04820165  0.27890265  0.91482776    -0.05700
C377        C  0.01786675  0.24626529  0.90886481    -0.32700
C378        C  0.48370943  0.24226951  0.90871713     0.36300
H379        H  0.50646884  0.32616169  0.92499521     0.16700
O380        O  0.07200938  0.33980144  0.92703406    -0.60200
H381        H  0.02048781  0.22357884  0.90429388     0.16700
O382        O  0.45493821  0.21027867  0.90256859    -0.60300
H383        H  0.45231974  0.21234153  0.88612593     0.43700
H384        H  0.07260675  0.33910329  0.94368055     0.43700
C385        C  0.29695596  0.27541483  0.92189424    -0.05400
C386        C  0.26358187  0.24441646  0.92082205    -0.32800
C387        C  0.23236186  0.24631233  0.92058597     0.36400
C388        C  0.23411745  0.27971747  0.92185386    -0.05700
C389        C  0.26752021  0.31065392  0.92415317    -0.32700
C390        C  0.29883775  0.30871990  0.92409725     0.36300
H391        H  0.26163892  0.21861347  0.91934683     0.16700
O392        O  0.20021327  0.21517239  0.91931486    -0.60200
H393        H  0.26948024  0.33649263  0.92535171     0.16700
O394        O  0.33113878  0.33958227  0.92589386    -0.60300
H395        H  0.33505012  0.34416181  0.94223606     0.43700
H396        H  0.19706133  0.20864499  0.90320223     0.43700
C397        C  0.34960739  0.22319089  0.85554620    -0.05400
C398        C  0.31953646  0.18849502  0.85537868    -0.32800
C399        C  0.30244460  0.17192104  0.83520126     0.36400
C400        C  0.31576857  0.18947765  0.81451925    -0.05700
C401        C  0.34643436  0.22365233  0.81459108    -0.32700
C402        C  0.36311802  0.24054819  0.83476200     0.38700
H403        H  0.30852664  0.17433264  0.87103933     0.16700
O404        O  0.27327547  0.13823282  0.83588727    -0.60200
H405        H  0.35708861  0.23786064  0.79888619     0.16700
O406        O  0.39234669  0.27418014  0.83388683    -0.60300
H407        H  0.41304842  0.27057797  0.83193593     0.43700
H408        H  0.25269842  0.14164826  0.83889563     0.43700
C409        C  0.37280697  0.18455779  0.18946742    -0.05400
C410        C  0.36500303  0.16525068  0.16947899    -0.32800
C411        C  0.36450872  0.18094426  0.14873701     0.36400
C412        C  0.37268737  0.21699045  0.14758731    -0.05700
C413        C  0.38064627  0.23619196  0.16768787    -0.32700
C414        C  0.38077132  0.22038392  0.18837355     0.36300
H415        H  0.35922126  0.13787298  0.16992304     0.16700
O416        O  0.35754847  0.16114058  0.12961596    -0.60200
H417        H  0.38737062  0.26385600  0.16739668     0.16700
O418        O  0.39006209  0.24074369  0.20739859    -0.60300
H419        H  0.41616621  0.25059754  0.20913309     0.43700
H420        H  0.33115459  0.14736858  0.12837503     0.43700
C421        C  0.04412574  0.27096048  0.08052939    -0.05400
C422        C  0.01268478  0.23744952  0.08101845    -0.32800
C423        C  0.47915130  0.23480579  0.08118810     0.36400
C424        C  0.47678570  0.26599228  0.08093135    -0.05700
C425        C  0.50813624  0.29934509  0.07954010    -0.32700
C426        C  0.04156628  0.30200828  0.07921489     0.36300
H427        H  0.01407976  0.21319166  0.08175224     0.16700
O428        O  0.44909355  0.20176424  0.08248136    -0.60200
H429        H  0.50680176  0.32364604  0.07910999     0.16700
O430        O  0.07151230  0.33518593  0.07907106    -0.60300
H431        H  0.07594777  0.34227495  0.06298944     0.43700
H432        H  0.44407283  0.19697378  0.09877967     0.43700
C433        C  0.29500402  0.27170026  0.09088043    -0.05400
C434        C  0.26183643  0.24042606  0.09267441    -0.32800
C435        C  0.23019062  0.24163314  0.09281470     0.36400
C436        C  0.23114331  0.27466896  0.09104166    -0.05700
C437        C  0.26439945  0.30603674  0.08908746    -0.32700
C438        C  0.29616135  0.30479292  0.08920825     0.36300
H439        H  0.26035794  0.21476863  0.09397123     0.16700
O440        O  0.19844830  0.21012147  0.09431772    -0.60200
H441        H  0.26585573  0.33164883  0.08745973     0.16700
O442        O  0.32802991  0.33593121  0.08660356    -0.60300
H443        H  0.33464915  0.34619784  0.10187214     0.43700
H444        H  0.19126629  0.20254941  0.07851642     0.43700
C445        C  0.40971279  0.31086080  0.97825332    -0.05400
C446        C  0.43719705  0.31150332  0.99127435    -0.32800
C447        C  0.43588914  0.31177664  0.01482893     0.36400
C448        C  0.40638702  0.31050823  0.02556340    -0.05700
C449        C  0.38066332  0.31316242  0.01255082    -0.32700
C450        C  0.38227722  0.31348394  0.98900458     0.36300
H451        H  0.45804085  0.30872379  0.98325617     0.16700
O452        O  0.46120666  0.30879770  0.02716986    -0.60200
H453        H  0.35758186  0.31168207  0.02057936     0.16700
O454        O  0.35508220  0.31291382  0.97664717    -0.60300
H455        H  0.33624052  0.28746382  0.97592726     0.43700
H456        H  0.47889152  0.33351876  0.03155975     0.43700
O457        O  0.41306349  0.73770897  0.07672436    -0.74300
O458        O  0.32664417  0.74140305  0.08203692    -0.74400
O459        O  0.37823947  0.76158062  0.05051347    -0.74400
O460        O  0.36155549  0.71622119  0.10805213    -0.74500
O461        O  0.39122991  0.76920845  0.12443519    -0.74400
O462        O  0.40936136  0.81532472  0.06605400    -0.74400
O463        O  0.35735624  0.79509804  0.09755388    -0.74400
O464        O  0.44277496  0.79103738  0.09290950    -0.74400
Ni465      Ni  0.36863303  0.73734071  0.07879751     1.25400
Ni466      Ni  0.40107760  0.79452877  0.09590954     1.25400
C467        C  0.44227084  0.76429807  0.08375195     0.87800
C468        C  0.32798504  0.76931765  0.09022069     0.87800
C469        C  0.39738823  0.79546414  0.04864960     0.87800
C470        C  0.37472741  0.73493224  0.12572017     0.88000
O471        O  0.33030111  0.74492593  0.92675215    -0.74300
O472        O  0.41747408  0.74210856  0.92183183    -0.74400
O473        O  0.38769188  0.76372783  0.95325573    -0.74400
O474        O  0.35841051  0.72139756  0.89545385    -0.74500
O475        O  0.38537444  0.77510403  0.87925167    -0.74400
O476        O  0.41351932  0.81833958  0.93809461    -0.74400
O477        O  0.44359052  0.79677624  0.90680185    -0.74400
O478        O  0.35725122  0.79879611  0.91062849    -0.74400
Ni479      Ni  0.37262018  0.74107226  0.92481945     1.25400
Ni480      Ni  0.40098680  0.79910503  0.90801596     1.25400
C481        C  0.32990291  0.77291717  0.91985039     0.87800
C482        C  0.44526871  0.76987596  0.91417715     0.87800
C483        C  0.40421303  0.79758377  0.95536523     0.87800
C484        C  0.36605915  0.74094747  0.87779583     0.88000
O485        O  0.10750455  0.80069821  0.07619728    -0.74300
O486        O  0.19763978  0.80395145  0.08233553    -0.74400
O487        O  0.14605071  0.78192569  0.05054504    -0.74400
O488        O  0.15907663  0.82465503  0.10784884    -0.74500
O489        O  0.13190365  0.77110255  0.12430442    -0.74400
O490        O  0.11764410  0.72740938  0.06586874    -0.74400
O491        O  0.16928656  0.74989180  0.09802882    -0.74400
O492        O  0.08041436  0.74687339  0.09230740    -0.74400
Ni493      Ni  0.15368658  0.80473741  0.07872336     1.25400
Ni494      Ni  0.12401229  0.74692633  0.09578561     1.25400
C495        C  0.07903927  0.77292398  0.08312197     0.87800
C496        C  0.19796744  0.77663117  0.09065921     0.87800
C497        C  0.12893604  0.74808712  0.04857441     0.87800
C498        C  0.14671152  0.80524680  0.12548234     0.88000
O499        O  0.20144597  0.81034518  0.92708644    -0.74300
O500        O  0.11253071  0.81036861  0.92316634    -0.74400
O501        O  0.14425061  0.78864571  0.95391696    -0.74400
O502        O  0.17123395  0.83387192  0.89634129    -0.74500
O503        O  0.14524768  0.78079632  0.87992347    -0.74400
O504        O  0.11858832  0.73488867  0.93816060    -0.74400
O505        O  0.08739646  0.75695876  0.90723576    -0.74400
O506        O  0.17490146  0.75715429  0.91074814    -0.74400
Ni507      Ni  0.15819187  0.81278779  0.92565248     1.25400
Ni508      Ni  0.13055134  0.75565054  0.90836812     1.25400
C509        C  0.20227692  0.78294045  0.91992380     0.87800
C510        C  0.08496686  0.78297499  0.91502030     0.87800
C511        C  0.12793460  0.75467700  0.95561802     0.87800
C512        C  0.16368064  0.81499051  0.87860992     0.88000
O513        O  0.29455653  0.71294629  0.74536002    -0.74300
O514        O  0.29605632  0.62499184  0.74772523    -0.74400
O515        O  0.27422136  0.65753806  0.71748225    -0.74400
O516        O  0.31809444  0.68232857  0.77526410    -0.74500
O517        O  0.26465548  0.65505092  0.79158806    -0.74400
O518        O  0.21987084  0.63021393  0.73272006    -0.74400
O519        O  0.24207642  0.59838141  0.76332140    -0.74400
O520        O  0.24082260  0.68520723  0.76125674    -0.74400
Ni521      Ni  0.29763527  0.67021623  0.74590941     1.25400
Ni522      Ni  0.23996223  0.64109321  0.76283973     1.25400
C523        C  0.26707308  0.71331775  0.75294246     0.87800
C524        C  0.26881288  0.59697331  0.75567864     0.87800
C525        C  0.24026854  0.64109622  0.71540647     0.87800
C526        C  0.29888888  0.67428281  0.79292581     0.88000
O527        O  0.29207547  0.62029061  0.59482506    -0.74300
O528        O  0.29317761  0.70885557  0.58660287    -0.74400
O529        O  0.27222685  0.65923136  0.61954666    -0.74400
O530        O  0.31443225  0.66980175  0.56190593    -0.74500
O531        O  0.26055070  0.64197374  0.54600388    -0.74400
O532        O  0.21745703  0.62882676  0.60485997    -0.74400
O533        O  0.23833240  0.67944778  0.57207323    -0.74400
O534        O  0.23813073  0.59187087  0.57894115    -0.74400
Ni535      Ni  0.29489261  0.66569504  0.59120130     1.25400
Ni536      Ni  0.23671047  0.63464643  0.57480388     1.25400
C537        C  0.26461207  0.59142172  0.58825252     0.87800
C538        C  0.26525302  0.70850670  0.57879933     0.87800
C539        C  0.23832273  0.64190959  0.62189808     0.87800
C540        C  0.29472258  0.65642427  0.54453373     0.88000
O541        O  0.23431776  0.84417213  0.74590589    -0.74300
O542        O  0.23227893  0.93151999  0.74879223    -0.74400
O543        O  0.25418548  0.90094361  0.71842490    -0.74400
O544        O  0.21077359  0.87338954  0.77597590    -0.74500
O545        O  0.26427866  0.90064369  0.79248381    -0.74400
O546        O  0.30865919  0.92674661  0.73373872    -0.74400
O547        O  0.28670748  0.95792945  0.76406343    -0.74400
O548        O  0.28802877  0.87103472  0.76222229    -0.74400
Ni549      Ni  0.23099027  0.88666225  0.74674200     1.25400
Ni550      Ni  0.28883315  0.91514776  0.76378836     1.25400
C551        C  0.26180696  0.84348410  0.75350434     0.87800
C552        C  0.25979254  0.95941690  0.75641811     0.87800
C553        C  0.28811170  0.91756359  0.71641954     0.87800
C554        C  0.23004258  0.88148707  0.79370444     0.88000
O555        O  0.23187514  0.92771227  0.59479097    -0.74300
O556        O  0.22963328  0.83829692  0.58934116    -0.74400
O557        O  0.25167873  0.88986662  0.62114486    -0.74400
O558        O  0.20857024  0.87697895  0.56316414    -0.74500
O559        O  0.26233388  0.90437987  0.54731286    -0.74400
O560        O  0.30614812  0.91879007  0.60609311    -0.74400
O561        O  0.28394915  0.86698765  0.57430798    -0.74400
O562        O  0.28572745  0.95534417  0.57899661    -0.74400
Ni563      Ni  0.22851466  0.88198098  0.59262919     1.25400
Ni564      Ni  0.28642300  0.91212173  0.57605373     1.25400
C565        C  0.25950811  0.95632397  0.58791347     0.87800
C566        C  0.25689341  0.83804740  0.58120592     0.87800
C567        C  0.28562574  0.90796518  0.62331366     0.87800
C568        C  0.22819923  0.88991279  0.54572805     0.88000
O569        O  0.10957126  0.83624274  0.25738003    -0.74300
O570        O  0.19872158  0.92428485  0.25459151    -0.74400
O571        O  0.14574376  0.89153408  0.28501614    -0.74400
O572        O  0.16218241  0.86692114  0.22690170    -0.74500
O573        O  0.13526601  0.89401105  0.21095997    -0.74400
O574        O  0.11762709  0.91829623  0.27011533    -0.74400
O575        O  0.17064594  0.95088232  0.23953150    -0.74400
O576        O  0.08268920  0.86360053  0.24169251    -0.74400
Ni577      Ni  0.15526227  0.87898857  0.25643424     1.25400
Ni578      Ni  0.12580054  0.90783466  0.23990401     1.25400
C579        C  0.08127960  0.83584869  0.25034822     0.87800
C580        C  0.19895095  0.95244155  0.24740862     0.87800
C581        C  0.12802655  0.90760339  0.28727640     0.87800
C582        C  0.14986708  0.87454457  0.20940778     0.88000
O583        O  0.19646967  0.92846218  0.41090677    -0.74300
O584        O  0.11060111  0.83744785  0.41730417    -0.74400
O585        O  0.13981234  0.88754925  0.38452624    -0.74400
O586        O  0.16909751  0.87834997  0.44354068    -0.74500
O587        O  0.14097018  0.90463473  0.45803171    -0.74400
O588        O  0.11255674  0.91567207  0.39774190    -0.74400
O589        O  0.08327327  0.86517663  0.43074271    -0.74400
O590        O  0.16829134  0.95481955  0.42518903    -0.74400
Ni591      Ni  0.15487514  0.88187349  0.41364037     1.25400
Ni592      Ni  0.12512224  0.91085985  0.42848692     1.25400
C593        C  0.19629376  0.95673046  0.41692171     0.87800
C594        C  0.08231364  0.83654700  0.42459566     0.87800
C595        C  0.12235674  0.90376225  0.38122774     0.87800
C596        C  0.16121607  0.89094470  0.46045866     0.88000
O597        O  0.41680228  0.70687346  0.25858374    -0.74300
O598        O  0.32748343  0.61867199  0.25725043    -0.74400
O599        O  0.38201219  0.65184041  0.28697308    -0.74400
O600        O  0.36274428  0.67594856  0.22888237    -0.74500
O601        O  0.38935871  0.64914498  0.21292464    -0.74400
O602        O  0.40950349  0.62499609  0.27212218    -0.74400
O603        O  0.35524075  0.59256529  0.24197351    -0.74400
O604        O  0.44326196  0.67954225  0.24308360    -0.74400
Ni605      Ni  0.37106920  0.66408141  0.25841726     1.25400
Ni606      Ni  0.40006523  0.63540809  0.24188699     1.25400
C607        C  0.44487985  0.70725760  0.25145971     0.87800
C608        C  0.32696956  0.59075540  0.24976992     0.87800
C609        C  0.40007743  0.63605397  0.28924001     0.87800
C610        C  0.37442789  0.66835868  0.21138179     0.88000
O611        O  0.32836667  0.62160687  0.40939668    -0.74300
O612        O  0.41711449  0.70876533  0.41770125    -0.74400
O613        O  0.38816240  0.66014112  0.38465754    -0.74400
O614        O  0.35612241  0.67023080  0.44224288    -0.74500
O615        O  0.38061593  0.64089319  0.45828587    -0.74400
O616        O  0.41090688  0.62832249  0.39963999    -0.74400
O617        O  0.44111178  0.67790171  0.43232736    -0.74400
O618        O  0.35254328  0.59173572  0.42533395    -0.74400
Ni619      Ni  0.37173139  0.66639153  0.41298863     1.25400
Ni620      Ni  0.39726924  0.63379131  0.42956836     1.25400
C621        C  0.32614149  0.59230954  0.41602222     0.87800
C622        C  0.44407445  0.70740717  0.42564342     0.87800
C623        C  0.40389289  0.64203791  0.38249182     0.87800
C624        C  0.36166257  0.65611450  0.45968458     0.88000
C625        C  0.41118072  0.63313943  0.31223096    -0.05400
C626        C  0.39007849  0.60231448  0.32501960    -0.32800
C627        C  0.39061441  0.60384243  0.34860959     0.36400
C628        C  0.41243154  0.63648404  0.35949856    -0.05700
C629        C  0.43608775  0.66631867  0.34670148    -0.32700
C630        C  0.43584973  0.66470745  0.32322197     0.36300
H631        H  0.37059888  0.57806403  0.31676883     0.16700
O632        O  0.36702989  0.57433257  0.36072035    -0.60200
H633        H  0.45267256  0.69169383  0.35483394     0.16700
O634        O  0.45669487  0.69532410  0.31110870    -0.60300
H635        H  0.47672010  0.69274117  0.30536803     0.43700
H636        H  0.34457576  0.57522205  0.36102086     0.43700
C637        C  0.29259407  0.55847742  0.41363310    -0.05400
C638        C  0.26042841  0.55657323  0.41934295    -0.32800
C639        C  0.22884025  0.52369525  0.42031034     0.36400
C640        C  0.22885620  0.99207133  0.41464992    -0.05700
C641        C  0.26122566  0.49439095  0.40843305    -0.32700
C642        C  0.29282957  0.52722949  0.40784261     0.36300
H643        H  0.26004176  0.58045310  0.42404690     0.16700
O644        O  0.19739168  0.02360492  0.42375848    -0.60200
H645        H  0.26233502  0.97014368  0.40579842     0.16700
O646        O  0.32383335  0.52860565  0.40136688    -0.60300
H647        H  0.33225426  0.52120136  0.41483753     0.43700
H648        H  0.18751197  0.52621728  0.41304540     0.43700
C649        C  0.04747708  0.80261702  0.42557521    -0.05400
C650        C  0.01676196  0.80370176  0.43199490    -0.32800
C651        C  0.48311203  0.77295066  0.43224462     0.36400
C652        C  0.47947778  0.74003847  0.42637648    -0.05700
C653        C  0.50999603  0.73852626  0.42031278    -0.32700
C654        C  0.04368109  0.76950294  0.41949559     0.36300
H655        H  0.01857711  0.82864445  0.43660908     0.16700
O656        O  0.45392753  0.77539729  0.43830968    -0.60200
H657        H  0.50754309  0.71337101  0.41547861     0.16700
O658        O  0.07247954  0.76698021  0.41261560    -0.60300
H659        H  0.07260541  0.76912697  0.39599462     0.43700
H660        H  0.45116799  0.77026243  0.45468863     0.43700
C661        C  0.23176341  0.98765313  0.24884021    -0.05400
C662        C  0.22927847  0.51800180  0.25110075    -0.32800
C663        C  0.25981345  0.55176830  0.25260793     0.36400
C664        C  0.29384402  0.55549425  0.25007177    -0.05700
C665        C  0.29644646  0.52465116  0.24729313    -0.32700
C666        C  0.26597980  0.49088483  0.24627207     0.36300
H667        H  0.20288840  0.01612796  0.25253011     0.16700
O668        O  0.25591852  0.58088505  0.25591683    -0.60200
H669        H  0.32229150  0.52660803  0.24577653     0.16700
O670        O  0.26980930  0.96193080  0.24590963    -0.60300
H671        H  0.27164533  0.95934756  0.22951354     0.43700
H672        H  0.25382266  0.58212544  0.27241484     0.43700
C673        C  0.47979128  0.73996878  0.25275209    -0.05400
C674        C  0.48153302  0.77306300  0.25241031    -0.32800
C675        C  0.01444811  0.80451745  0.25199162     0.36400
C676        C  0.04634843  0.80311340  0.25212131    -0.05700
C677        C  0.04458844  0.77000880  0.25358964    -0.32700
C678        C  0.51164091  0.73853684  0.25381068     0.36300
H679        H  0.45731995  0.77462078  0.25193935     0.16700
O680        O  0.01509791  0.83648544  0.25203638    -0.60200
H681        H  0.06878107  0.76841678  0.25409972     0.16700
O682        O  0.51086939  0.70657610  0.25568746    -0.60300
H683        H  0.51597376  0.70150597  0.24039291     0.43700
H684        H  0.00960118  0.84017571  0.23634935     0.43700
C685        C  0.11840963  0.91139996  0.31032364    -0.05400
C686        C  0.09295417  0.88041755  0.32148716    -0.32800
C687        C  0.09129426  0.87886469  0.34499537     0.36400
C688        C  0.11481372  0.90879737  0.35768533    -0.05700
C689        C  0.13819382  0.94080560  0.34647343    -0.32700
C690        C  0.14027998  0.94215524  0.32287173     0.36300
H691        H  0.07645376  0.85635602  0.31202541     0.16700
O692        O  0.06847611  0.84718298  0.35549781    -0.60200
H693        H  0.15715347  0.96375730  0.35603761     0.16700
O694        O  0.16571208  0.97262606  0.31237444    -0.60300
H695        H  0.18703882  0.96983087  0.31121863     0.43700
H696        H  0.08106538  0.83335158  0.35563948     0.43700
C697        C  0.17755181  0.89066760  0.48259981    -0.05400
C698        C  0.21051668  0.89148217  0.48288691    -0.32800
C699        C  0.22728102  0.89126615  0.50312442     0.36400
C700        C  0.21090112  0.88942277  0.52381735    -0.05700
C701        C  0.17789486  0.88861389  0.52358369    -0.32700
C702        C  0.16160872  0.88989877  0.50328214     0.36300
H703        H  0.22377830  0.89280402  0.46725015     0.16700
O704        O  0.25972789  0.89291107  0.50239467    -0.60200
H705        H  0.16494186  0.88777279  0.53925888     0.16700
O706        O  0.12972663  0.88944658  0.50389474    -0.60300
H707        H  0.13620114  0.91458166  0.50629259     0.43700
H708        H  0.25406015  0.86777848  0.50163757     0.43700
C709        C  0.30222420  0.92498175  0.69337124    -0.05400
C710        C  0.31046551  0.90093627  0.68316220    -0.32800
C711        C  0.30911737  0.89752512  0.65964233     0.36400
C712        C  0.29992635  0.91866813  0.64622639    -0.05700
C713        C  0.29543064  0.94518743  0.65638300    -0.32700
C714        C  0.29650224  0.94841890  0.67978149     0.36300
H715        H  0.31423311  0.88226855  0.69344698     0.16700
O716        O  0.31378465  0.87151342  0.65011234    -0.60200
H717        H  0.28781007  0.96128326  0.64625329     0.16700
O718        O  0.28764563  0.97160234  0.68929289    -0.60300
H719        H  0.31066252  0.99411076  0.69127405     0.43700
H720        H  0.28962802  0.85007567  0.64958600     0.43700
C721        C  0.26348647  0.55704279  0.59078640    -0.05400
C722        C  0.29541723  0.55617915  0.59096804    -0.32800
C723        C  0.29486887  0.52368798  0.59058191     0.36400
C724        C  0.26112470  0.99097532  0.58986930    -0.05700
C725        C  0.23010974  0.49225986  0.59168372    -0.32700
C726        C  0.23064407  0.52471363  0.59163578     0.36300
H727        H  0.32090714  0.58073941  0.59054859     0.16700
O728        O  0.32584280  0.02356029  0.58897319    -0.60200
H729        H  0.20379765  0.96744166  0.59179166     0.16700
O730        O  0.19888839  0.52450876  0.59266926    -0.60300
H731        H  0.18903375  0.51918252  0.57718516     0.43700
H732        H  0.33531144  0.52943377  0.57488579     0.43700
C733        C  0.25811760  0.80438560  0.58002217    -0.05400
C734        C  0.29126923  0.80628457  0.57703258    -0.32800
C735        C  0.29400769  0.77545518  0.57650709     0.36400
C736        C  0.26319338  0.74166415  0.57840883    -0.05700
C737        C  0.22991342  0.73958943  0.58102113    -0.32700
C738        C  0.22722543  0.77048708  0.58200304     0.36300
H739        H  0.31548794  0.83189261  0.57545993     0.16700
O740        O  0.32689423  0.77869189  0.57354232    -0.60200
H741        H  0.20587019  0.71386891  0.58282458     0.16700
O742        O  0.19430120  0.76710056  0.58508202    -0.60300
H743        H  0.18473958  0.76604682  0.56972633     0.43700
H744        H  0.33814793  0.78407202  0.58864768     0.43700
C745        C  0.31205934  0.65673891  0.52283503    -0.05400
C746        C  0.29679116  0.65811788  0.50222644    -0.32800
C747        C  0.31282414  0.65826712  0.48173785     0.36400
C748        C  0.34470348  0.65658789  0.48140385    -0.05700
C749        C  0.35946544  0.65430437  0.50202344    -0.32700
C750        C  0.34375840  0.65478220  0.52252276     0.36300
H751        H  0.27238809  0.65931889  0.50196617     0.16700
O752        O  0.29660211  0.65946615  0.46209829    -0.60200
H753        H  0.38349241  0.65241843  0.50230666     0.16700
O754        O  0.35884794  0.65172337  0.54218332    -0.60300
H755        H  0.37843811  0.67619430  0.54548903     0.43700
H756        H  0.28097806  0.63421435  0.45778580     0.43700
C757        C  0.26146861  0.99427940  0.75594503    -0.05400
C758        C  0.29551644  0.52579132  0.75616720    -0.32800
C759        C  0.29830601  0.55936085  0.75557080     0.36400
C760        C  0.26724923  0.56207697  0.75593738    -0.05700
C761        C  0.23373371  0.53066091  0.75693363    -0.32700
C762        C  0.23094942  0.49711455  0.75746432     0.36300
H763        H  0.31911269  0.02407517  0.75333317     0.16700
O764        O  0.33152518  0.58923280  0.75480467    -0.60200
H765        H  0.20942033  0.53201872  0.75720880     0.16700
O766        O  0.19735352  0.96712863  0.75870167    -0.60300
H767        H  0.19324540  0.96235481  0.77506636     0.43700
H768        H  0.33848333  0.59561889  0.77073664     0.43700
C769        C  0.26540641  0.74651456  0.75236992    -0.05400
C770        C  0.29688244  0.77941871  0.74964184    -0.32800
C771        C  0.29608543  0.81123007  0.74985495     0.36400
C772        C  0.26334378  0.81043295  0.75248454    -0.05700
C773        C  0.23183920  0.77764019  0.75477759    -0.32700
C774        C  0.23266434  0.74588142  0.75507936     0.36300
H775        H  0.32231743  0.78060091  0.74769969     0.16700
O776        O  0.32747591  0.84291956  0.74746591    -0.60200
H777        H  0.20651560  0.77662951  0.75694943     0.16700
O778        O  0.20114258  0.71439426  0.75771612    -0.60300
H779        H  0.19684300  0.71165648  0.77415947     0.43700
H780        H  0.32965975  0.84823517  0.73110565     0.43700
C781        C  0.22598377  0.63745709  0.69238198    -0.05400
C782        C  0.21331742  0.60541523  0.68063683    -0.32800
C783        C  0.21260112  0.60539711  0.65695347     0.36400
C784        C  0.22457688  0.63767797  0.64498768    -0.05700
C785        C  0.23352334  0.66876006  0.65687491    -0.32700
C786        C  0.23418291  0.66880540  0.68035473     0.36300
H787        H  0.20735003  0.58120262  0.68965843     0.16700
O788        O  0.20362482  0.57454747  0.64572952    -0.60200
H789        H  0.24329691  0.69384833  0.64791118     0.16700
O790        O  0.24711971  0.70061171  0.69132563    -0.60300
H791        H  0.22578408  0.70022841  0.69763562     0.43700
H792        H  0.22611274  0.57382695  0.64462278     0.43700
C793        C  0.21189148  0.86639774  0.81547560    -0.05400
C794        C  0.18125177  0.83228747  0.81577590    -0.32800
C795        C  0.16465764  0.81558798  0.83602675     0.36400
C796        C  0.17819682  0.83317244  0.85660962    -0.05700
C797        C  0.20775602  0.86813571  0.85617345    -0.32700
C798        C  0.22460165  0.88463882  0.83587964     0.36300
H799        H  0.17067772  0.81788944  0.80023285     0.16700
O800        O  0.13502606  0.78220399  0.83542585    -0.60200
H801        H  0.21860099  0.88246881  0.87169664     0.16700
O802        O  0.25346475  0.91851904  0.83621855    -0.60300
H803        H  0.24336863  0.93445859  0.83412592     0.43700
H804        H  0.14438105  0.76557439  0.83405716     0.43700
C805        C  0.15069235  0.85824793  0.18764447    -0.05400
C806        C  0.15042012  0.82556833  0.18797739    -0.32800
C807        C  0.14910621  0.80796182  0.16804465     0.36400
C808        C  0.14863228  0.82312549  0.14709536    -0.05700
C809        C  0.14944294  0.85605831  0.14671866    -0.32700
C810        C  0.14992933  0.87328210  0.16668650     0.36300
H811        H  0.15043628  0.81306937  0.20385324     0.16700
O812        O  0.14827786  0.77595554  0.16931298    -0.60200
H813        H  0.14892365  0.86825855  0.13082290     0.16700
O814        O  0.15049711  0.90516293  0.16546533    -0.60300
H815        H  0.12525412  0.89875679  0.16308129     0.43700
H816        H  0.17360265  0.78206357  0.16832399     0.43700
C817        C  0.12170785  0.73923741  0.97836983    -0.05400
C818        C  0.09226188  0.73497809  0.99056753    -0.32800
C819        C  0.09192214  0.73235555  0.01407722     0.36400
C820        C  0.12144756  0.73428267  0.02557094    -0.05700
C821        C  0.14931737  0.73521658  0.01322811    -0.32700
C822        C  0.14967694  0.73788859  0.98972905     0.36300
H823        H  0.07108561  0.73697299  0.98204604     0.16700
O824        O  0.06502089  0.73292492  0.02574223    -0.60200
H825        H  0.17257376  0.73766787  0.02188521     0.16700
O826        O  0.17904404  0.74261147  0.97816126    -0.60300
H827        H  0.19618830  0.76864348  0.97848730     0.43700
H828        H  0.04977014  0.70819593  0.03140540     0.43700
C829        C  0.48047527  0.77236528  0.91457910    -0.05400
C830        C  0.51060989  0.80504299  0.92024324    -0.32800
C831        C  0.04472536  0.80901641  0.92069524     0.36400
C832        C  0.04934720  0.78018122  0.91487475    -0.05700
C833        C  0.01896591  0.74742263  0.90918169    -0.32700
C834        C  0.48479930  0.74337427  0.90910284     0.36300
H835        H  0.50763932  0.82760605  0.92463253     0.16700
O836        O  0.07328106  0.84138951  0.92645855    -0.60200
H837        H  0.02154920  0.72464833  0.90479348     0.16700
O838        O  0.45599955  0.71123630  0.90321702    -0.60300
H839        H  0.45330758  0.71289910  0.88674649     0.43700
H840        H  0.07403774  0.84119324  0.94310911     0.43700
C841        C  0.29753069  0.77566562  0.92218281    -0.05400
C842        C  0.26405680  0.74469737  0.92181014    -0.32800
C843        C  0.23291498  0.74677107  0.92157183     0.36400
C844        C  0.23489744  0.78032543  0.92206344    -0.05700
C845        C  0.26840039  0.81125960  0.92377141    -0.32700
C846        C  0.29960027  0.80914552  0.92379864     0.36300
H847        H  0.26195095  0.71876474  0.92089252     0.16700
O848        O  0.20062106  0.71569476  0.92110287    -0.60200
H849        H  0.27051354  0.83721280  0.92443640     0.16700
O850        O  0.33197667  0.84002168  0.92510212    -0.60300
H851        H  0.33686670  0.84448751  0.94139314     0.43700
H852        H  0.19700136  0.70799708  0.90520644     0.43700
C853        C  0.35073142  0.72327234  0.85580012    -0.05400
C854        C  0.32056978  0.68863966  0.85560667    -0.32800
C855        C  0.30355462  0.67209883  0.83540145     0.36400
C856        C  0.31699010  0.68966583  0.81472891    -0.05700
C857        C  0.34789382  0.72366085  0.81482898    -0.32700
C858        C  0.36454986  0.74048700  0.83502211     0.38700
H859        H  0.30941037  0.67453209  0.87126216     0.16700
O860        O  0.27432876  0.63844131  0.83605054    -0.60200
H861        H  0.35873334  0.73781436  0.79913320     0.16700
O862        O  0.39406348  0.77392869  0.83417593    -0.60300
H863        H  0.41460338  0.76997332  0.83258508     0.43700
H864        H  0.25377588  0.64190613  0.83902602     0.43700
C865        C  0.37250750  0.68428143  0.18950717    -0.05400
C866        C  0.36513580  0.66510365  0.16949158    -0.32800
C867        C  0.36442371  0.68071422  0.14876880     0.36400
C868        C  0.37203256  0.71657465  0.14767061    -0.05700
C869        C  0.37935147  0.73558981  0.16780167    -0.32700
C870        C  0.37959451  0.71983302  0.18847625     0.36300
H871        H  0.35989134  0.63790421  0.16989754     0.16700
O872        O  0.35789315  0.66107038  0.12961401    -0.60200
H873        H  0.38550137  0.76308115  0.16754002     0.16700
O874        O  0.38815041  0.74000734  0.20755357    -0.60300
H875        H  0.41432241  0.75051556  0.20940617     0.43700
H876        H  0.33151925  0.64693672  0.12831282     0.43700
C877        C  0.04389408  0.77048399  0.08092524    -0.05400
C878        C  0.01263013  0.73711486  0.08362489    -0.32800
C879        C  0.47902979  0.73430299  0.08381645     0.36400
C880        C  0.47637532  0.76513829  0.08126087    -0.05700
C881        C  0.50736572  0.79817952  0.07767336    -0.32700
C882        C  0.04088865  0.80101789  0.07732328     0.36300
H883        H  0.01420676  0.71314812  0.08614052     0.16700
O884        O  0.44925187  0.70163657  0.08746784    -0.60200
H885        H  0.50565683  0.82213536  0.07548861     0.16700
O886        O  0.07054244  0.83406963  0.07470759    -0.60300
H887        H  0.07371859  0.83788003  0.05822447     0.43700
H888        H  0.44597890  0.69961070  0.10401167     0.43700
C889        C  0.29522148  0.77191813  0.09103670    -0.05400
C890        C  0.26206722  0.74073281  0.09317703    -0.32800
C891        C  0.23046893  0.74201923  0.09340904     0.36400
C892        C  0.23144983  0.77505020  0.09130002    -0.05700
C893        C  0.26471232  0.80633954  0.08908233    -0.32700
C894        C  0.29643857  0.80502060  0.08919097     0.36300
H895        H  0.26056684  0.71508450  0.09470002     0.16700
O896        O  0.19874394  0.71057951  0.09537762    -0.60200
H897        H  0.26620195  0.83194485  0.08726857     0.16700
O898        O  0.32832709  0.83608185  0.08642884    -0.60300
H899        H  0.33508525  0.84650742  0.10165210     0.43700
H900        H  0.19145658  0.70221958  0.07971303     0.43700
C901        C  0.41001654  0.81150283  0.97841505    -0.05400
C902        C  0.43781743  0.81274405  0.99140405    -0.32800
C903        C  0.43638237  0.81264475  0.01497056     0.36400
C904        C  0.40648426  0.81047485  0.02573384    -0.05700
C905        C  0.38040691  0.81256575  0.01276636    -0.32700
C906        C  0.38210050  0.81319594  0.98922393     0.36300
H907        H  0.45902896  0.81064471  0.98333967     0.16700
O908        O  0.46204431  0.81019722  0.02726045    -0.60200
H909        H  0.35703897  0.81040574  0.02081892     0.16700
O910        O  0.35455813  0.81197421  0.97690975    -0.60300
H911        H  0.33610785  0.78638127  0.97620075     0.43700
H912        H  0.47967359  0.83508491  0.03138809     0.43700
O913        O  0.91336925  0.23833255  0.07640710    -0.74300
O914        O  0.82662843  0.24131547  0.08204997    -0.74400
O915        O  0.87802054  0.26174457  0.05039594    -0.74400
O916        O  0.86208011  0.21653687  0.10795053    -0.74500
O917        O  0.89142807  0.26955421  0.12430944    -0.74400
O918        O  0.90911818  0.31553261  0.06588087    -0.74400
O919        O  0.85717590  0.29511182  0.09744516    -0.74400
O920        O  0.94284392  0.29154730  0.09270878    -0.74400
Ni921      Ni  0.86878248  0.23758919  0.07867884     1.25400
Ni922      Ni  0.90102610  0.29480076  0.09575771     1.25400
C923        C  0.94253283  0.26496511  0.08344848     0.87800
C924        C  0.82784556  0.26921646  0.09015365     0.87800
C925        C  0.89712690  0.29562090  0.04849735     0.87800
C926        C  0.87519673  0.23528591  0.12561470     0.88000
O927        O  0.82965510  0.24470138  0.92650412    -0.74300
O928        O  0.91640828  0.24121423  0.92155048    -0.74400
O929        O  0.88695056  0.26307422  0.95304273    -0.74400
O930        O  0.85749362  0.22108368  0.89515307    -0.74500
O931        O  0.88461113  0.27486724  0.87905652    -0.74400
O932        O  0.91313195  0.31774826  0.93795702    -0.74400
O933        O  0.94280580  0.29592072  0.90656098    -0.74400
O934        O  0.85684530  0.29872483  0.91057373    -0.74400
Ni935      Ni  0.87176807  0.24055508  0.92455751     1.25400
Ni936      Ni  0.90042104  0.29867407  0.90786210     1.25400
C937        C  0.82939138  0.27278579  0.91967220     0.87800
C938        C  0.94428458  0.26889283  0.91391407     0.87800
C939        C  0.90371437  0.29693236  0.95519723     0.87800
C940        C  0.86513404  0.24073651  0.87754205     0.88000
O941        O  0.60754598  0.30064613  0.07582453    -0.74300
O942        O  0.69740179  0.30357968  0.08212140    -0.74400
O943        O  0.64593900  0.28158918  0.05027115    -0.74400
O944        O  0.65880437  0.32431835  0.10757061    -0.74500
O945        O  0.63146527  0.27071590  0.12398601    -0.74400
O946        O  0.61730081  0.22708248  0.06561149    -0.74400
O947        O  0.66892683  0.24947725  0.09776517    -0.74400
O948        O  0.58011963  0.24675502  0.09189316    -0.74400
Ni949      Ni  0.65355413  0.30445776  0.07843781     1.25400
Ni950      Ni  0.62364903  0.24660768  0.09547682     1.25400
C951        C  0.57900638  0.27296727  0.08272599     0.87800
C952        C  0.69765407  0.27622063  0.09041876     0.87800
C953        C  0.62869748  0.24773818  0.04832480     0.87800
C954        C  0.64623942  0.30484520  0.12516406     0.88000
O955        O  0.70040451  0.30942968  0.92721700    -0.74300
O956        O  0.61134875  0.30916060  0.92317836    -0.74400
O957        O  0.64297268  0.28736979  0.95387548    -0.74400
O958        O  0.67035047  0.33315102  0.89655202    -0.74500
O959        O  0.64446415  0.28026112  0.87987197    -0.74400
O960        O  0.61758999  0.23374614  0.93794732    -0.74400
O961        O  0.58639233  0.25588010  0.90708528    -0.74400
O962        O  0.67407476  0.25647184  0.91060022    -0.74400
Ni963      Ni  0.65707356  0.31174644  0.92573775     1.25400
Ni964      Ni  0.62965023  0.25478832  0.90822006     1.25400
C965        C  0.70138808  0.28219823  0.91986672     0.87800
C966        C  0.58384979  0.28177470  0.91496180     0.87800
C967        C  0.62678494  0.25340788  0.95546298     0.87800
C968        C  0.66296918  0.31447268  0.87874851     0.88000
O969        O  0.79388106  0.21270820  0.74532935    -0.74300
O970        O  0.79561445  0.12497199  0.74728381    -0.74400
O971        O  0.77398458  0.15780004  0.71721431    -0.74400
O972        O  0.81723696  0.18193736  0.77513288    -0.74500
O973        O  0.76364213  0.15452833  0.79125856    -0.74400
O974        O  0.71945483  0.13007954  0.73220175    -0.74400
O975        O  0.74155299  0.09810400  0.76276154    -0.74400
O976        O  0.73990783  0.18471565  0.76092469    -0.74400
Ni977      Ni  0.79708566  0.17011542  0.74570761     1.25400
Ni978      Ni  0.73923238  0.14069981  0.76240579     1.25400
C979        C  0.76626601  0.21292162  0.75279511     0.87800
C980        C  0.76832715  0.09682452  0.75505221     0.87800
C981        C  0.74005935  0.14138168  0.71499133     0.87800
C982        C  0.79785578  0.17388461  0.79270986     0.88000
O983        O  0.79155164  0.11994233  0.59437111    -0.74300
O984        O  0.79373023  0.20903571  0.58617348    -0.74400
O985        O  0.77235599  0.15944770  0.61911637    -0.74400
O986        O  0.81426783  0.16944800  0.56150428    -0.74500
O987        O  0.76035007  0.14193559  0.54564135    -0.74400
O988        O  0.71750163  0.12945672  0.60450274    -0.74400
O989        O  0.73882016  0.18000874  0.57169188    -0.74400
O990        O  0.73751205  0.09187518  0.57858999    -0.74400
Ni991      Ni  0.79488621  0.16558600  0.59077764     1.25400
Ni992      Ni  0.73663148  0.13494631  0.57444370     1.25400
C993        C  0.76395586  0.09119707  0.58777568     0.87800
C994        C  0.76591623  0.20894058  0.57841042     0.87800
C995        C  0.73845665  0.14253795  0.62149902     0.87800
C996        C  0.79449216  0.15612250  0.54416102     0.88000
O997        O  0.73423350  0.34419624  0.74611833    -0.74300
O998        O  0.73278534  0.43179769  0.74939038    -0.74400
O999        O  0.75439696  0.40120388  0.71876830    -0.74400
O1000       O  0.71102524  0.37346095  0.77637139    -0.74500
O1001       O  0.76452904  0.40021001  0.79286312    -0.74400
O1002       O  0.80885619  0.42672332  0.73407256    -0.74400
O1003       O  0.78715382  0.45782719  0.76472012    -0.74400
O1004       O  0.78798215  0.37073286  0.76237487    -0.74400
Ni1005     Ni  0.73121959  0.38683978  0.74712557     1.25400
Ni1006     Ni  0.78905286  0.41492628  0.76415730     1.25400
C1007       C  0.76163447  0.34329301  0.75366060     0.87800
C1008       C  0.76029488  0.45952458  0.75718547     0.87800
C1009       C  0.78832418  0.41769226  0.71674036     0.87800
C1010       C  0.73027375  0.38126704  0.79410105     0.88000
O1011       O  0.73277582  0.42810813  0.59506738    -0.74300
O1012       O  0.73087112  0.33894574  0.58944320    -0.74400
O1013       O  0.75281274  0.39041063  0.62129360    -0.74400
O1014       O  0.70944064  0.37742308  0.56334603    -0.74500
O1015       O  0.76310682  0.40480177  0.54736644    -0.74400
O1016       O  0.80723082  0.41966242  0.60620347    -0.74400
O1017       O  0.78516646  0.36775511  0.57440313    -0.74400
O1018       O  0.78650601  0.45592922  0.57909979    -0.74400
Ni1019     Ni  0.72956153  0.38249168  0.59279680     1.25400
Ni1020     Ni  0.78739142  0.41280011  0.57613212     1.25400
C1021       C  0.76034830  0.45678261  0.58821669     0.87800
C1022       C  0.75815693  0.33876745  0.58129372     0.87800
C1023       C  0.78674744  0.40871211  0.62345742     0.87800
C1024       C  0.72893215  0.39018849  0.54583687     0.88000
O1025       O  0.60936239  0.33653031  0.25716601    -0.74300
O1026       O  0.69878525  0.42412241  0.25379632    -0.74400
O1027       O  0.64630113  0.39206570  0.28460698    -0.74400
O1028       O  0.66147825  0.36661700  0.22640511    -0.74500
O1029       O  0.63443066  0.39366708  0.21060364    -0.74400
O1030       O  0.61829710  0.41903304  0.26984807    -0.74400
O1031       O  0.67076185  0.45084371  0.23882064    -0.74400
O1032       O  0.58243237  0.36402394  0.24172192    -0.74400
Ni1033     Ni  0.65516636  0.37906293  0.25595948     1.25400
Ni1034     Ni  0.62572055  0.40803922  0.23958732     1.25400
C1035       C  0.58106064  0.33621712  0.25024979     0.87800
C1036       C  0.69909494  0.45227030  0.24653298     0.87800
C1037       C  0.62892087  0.40846460  0.28696532     0.87800
C1038       C  0.64890521  0.37409308  0.20897772     0.88000
O1039       O  0.69701703  0.42839561  0.41112667    -0.74300
O1040       O  0.61107601  0.33713213  0.41664523    -0.74400
O1041       O  0.64083649  0.38800651  0.38428200    -0.74400
O1042       O  0.66924640  0.37756133  0.44337753    -0.74500
O1043       O  0.64094895  0.40357656  0.45797082    -0.74400
O1044       O  0.61325921  0.41571363  0.39764238    -0.74400
O1045       O  0.58361555  0.36461213  0.43026024    -0.74400
O1046       O  0.66853470  0.45435742  0.42551253    -0.74400
Ni1047     Ni  0.65542746  0.38169255  0.41342713     1.25400
Ni1048     Ni  0.62542230  0.41031641  0.42840985     1.25400
C1049       C  0.69667612  0.45651497  0.41731339     0.87800
C1050       C  0.58269781  0.33610844  0.42388766     0.87800
C1051       C  0.62342962  0.40428672  0.38104808     0.87800
C1052       C  0.66123220  0.38991075  0.46037525     0.88000
O1053       O  0.91694224  0.20711522  0.25841567    -0.74300
O1054       O  0.82732632  0.11924284  0.25749969    -0.74400
O1055       O  0.88213251  0.15234471  0.28702208    -0.74400
O1056       O  0.86277343  0.17626103  0.22884895    -0.74500
O1057       O  0.88902469  0.14903856  0.21296493    -0.74400
O1058       O  0.90919707  0.12507629  0.27216267    -0.74400
O1059       O  0.85472260  0.09274198  0.24224822    -0.74400
O1060       O  0.94307598  0.17944169  0.24296117    -0.74400
Ni1061     Ni  0.87111210  0.16450672  0.25844072     1.25400
Ni1062     Ni  0.89971225  0.13540934  0.24194851     1.25400
C1063       C  0.94488499  0.20733242  0.25119794     0.87800
C1064       C  0.82661593  0.09115900  0.25016640     0.87800
C1065       C  0.89991924  0.13625829  0.28927708     0.87800
C1066       C  0.87437725  0.16849705  0.21137272     0.88000
O1067       O  0.82833915  0.12153505  0.40931030    -0.74300
O1068       O  0.91721669  0.20861819  0.41736429    -0.74400
O1069       O  0.88801818  0.15977367  0.38452540    -0.74400
O1070       O  0.85624561  0.17029798  0.44204987    -0.74500
O1071       O  0.88082478  0.14106374  0.45814367    -0.74400
O1072       O  0.91071322  0.12795138  0.39959164    -0.74400
O1073       O  0.94123097  0.17778058  0.43201697    -0.74400
O1074       O  0.85246298  0.09172225  0.42538339    -0.74400
Ni1075     Ni  0.87175064  0.16627995  0.41280994     1.25400
Ni1076     Ni  0.89728332  0.13371729  0.42946748     1.25400
C1077       C  0.82608469  0.09224930  0.41599013     0.87800
C1078       C  0.94422854  0.20723254  0.42518164     0.87800
C1079       C  0.90365145  0.14157317  0.38242698     0.87800
C1080       C  0.86178036  0.15617965  0.45949153     0.88000
C1081       C  0.91069259  0.13285663  0.31225084    -0.05400
C1082       C  0.88884914  0.10213047  0.32493310    -0.32800
C1083       C  0.88938179  0.10346101  0.34851576     0.36400
C1084       C  0.91200829  0.13578603  0.35949097    -0.05700
C1085       C  0.93632067  0.16541039  0.34680874    -0.32700
C1086       C  0.93600447  0.16400194  0.32332306     0.36300
H1087       H  0.86886986  0.07822352  0.31660672     0.16700
O1088       O  0.86510492  0.07420086  0.36054486    -0.60200
H1089       H  0.95348625  0.19056193  0.35503414     0.16700
O1090       O  0.95751658  0.19448610  0.31128439    -0.60300
H1091       H  0.97940249  0.19338926  0.30809553     0.43700
H1092       H  0.84327276  0.07619965  0.36113786     0.43700
C1093       C  0.79257095  0.05836648  0.41347366    -0.05400
C1094       C  0.76010543  0.05679725  0.41777097    -0.32800
C1095       C  0.72838083  0.02401581  0.41851246     0.36400
C1096       C  0.72913414  0.49198982  0.41520551    -0.05700
C1097       C  0.76126472  0.99409092  0.40916352    -0.32700
C1098       C  0.79297688  0.02683619  0.40875613     0.36300
H1099       H  0.75950811  0.08089155  0.42153347     0.16700
O1100       O  0.69824347  0.52293319  0.42703033    -0.60200
H1101       H  0.76215526  0.47066587  0.40411661     0.16700
O1102       O  0.82426256  0.02782821  0.40350742    -0.60300
H1103       H  0.83166850  0.02056277  0.41749194     0.43700
H1104       H  0.68732561  0.02560462  0.40911323     0.43700
C1105       C  0.54778962  0.30222667  0.42465093    -0.05400
C1106       C  0.51724215  0.30331757  0.43147548    -0.32800
C1107       C  0.98355872  0.27264829  0.43180865     0.36400
C1108       C  0.97969718  0.23978223  0.42561932    -0.05700
C1109       C  0.00999954  0.23826129  0.41899587    -0.32700
C1110       C  0.54373751  0.26919826  0.41809102     0.36300
H1111       H  0.51921653  0.32820001  0.43642114     0.16700
O1112       O  0.95456873  0.27511119  0.43833057    -0.60200
H1113       H  0.00732397  0.21314010  0.41384756     0.16700
O1114       O  0.57231766  0.26672492  0.41067764    -0.60300
H1115       H  0.57233782  0.26963933  0.39411554     0.43700
H1116       H  0.95206489  0.26964115  0.45467102     0.43700
C1117       C  0.73199581  0.48736857  0.24780932    -0.05400
C1118       C  0.72891387  0.01837176  0.25139070    -0.32800
C1119       C  0.75939765  0.05223581  0.25273961     0.36400
C1120       C  0.79349545  0.05592278  0.25082776    -0.05700
C1121       C  0.79622059  0.02502695  0.24894255    -0.32700
C1122       C  0.76582959  0.99120969  0.24803249     0.36300
H1123       H  0.70331043  0.51573491  0.25279823     0.16700
O1124       O  0.75541230  0.08147172  0.25514965    -0.60200
H1125       H  0.82212916  0.02699418  0.24797477     0.16700
O1126       O  0.76977880  0.46162197  0.24338904    -0.60300
H1127       H  0.77077654  0.45929034  0.22688954     0.43700
H1128       H  0.75268286  0.08323605  0.27152755     0.43700
C1129       C  0.97981755  0.24008933  0.25224629    -0.05400
C1130       C  0.98143878  0.27313729  0.25259775    -0.32800
C1131       C  0.51427464  0.30468368  0.25228021     0.36400
C1132       C  0.54621657  0.30341480  0.25187965    -0.05700
C1133       C  0.54462070  0.27035600  0.25249424    -0.32700
C1134       C  0.01176752  0.23880010  0.25254007     0.36300
H1135       H  0.95718007  0.27461330  0.25264658     0.16700
O1136       O  0.51482748  0.33658015  0.25297488    -0.60200
H1137       H  0.56888345  0.26888584  0.25245138     0.16700
O1138       O  0.01122985  0.20689320  0.25348894    -0.60300
H1139       H  0.01590382  0.20250478  0.23790815     0.43700
H1140       H  0.50910907  0.34074742  0.23744916     0.43700
C1141       C  0.61996555  0.41283864  0.31008853    -0.05400
C1142       C  0.59325906  0.38256164  0.32120328    -0.32800
C1143       C  0.59162412  0.38090168  0.34473195     0.36400
C1144       C  0.61645869  0.41006035  0.35749726    -0.05700
C1145       C  0.64129768  0.44150557  0.34633567    -0.32700
C1146       C  0.64334041  0.44292162  0.32273275     0.36300
H1147       H  0.57561172  0.35894456  0.31167914     0.16700
O1148       O  0.56743195  0.34970138  0.35515519    -0.60200
H1149       H  0.66123913  0.46380407  0.35594062     0.16700
O1150       O  0.67001289  0.47266716  0.31230498    -0.60300
H1151       H  0.69033154  0.46825992  0.31113034     0.43700
H1152       H  0.57880406  0.33472726  0.35549961     0.43700
C1153       C  0.67753145  0.38949938  0.48258154    -0.05400
C1154       C  0.70988974  0.38904752  0.48292627    -0.32800
C1155       C  0.72688262  0.38929244  0.50319372     0.36400
C1156       C  0.71137352  0.38922109  0.52389839    -0.05700
C1157       C  0.67889294  0.38947562  0.52362709    -0.32700
C1158       C  0.66239203  0.39028988  0.50328417     0.36300
H1159       H  0.72257308  0.38909358  0.46730373     0.16700
O1160       O  0.75869015  0.38960315  0.50248828    -0.60200
H1161       H  0.66656973  0.38989692  0.53930083     0.16700
O1162       O  0.63112860  0.39105971  0.50390526    -0.60300
H1163       H  0.63847602  0.41651751  0.50585830     0.43700
H1164       H  0.75208739  0.36417641  0.50197933     0.43700
C1165       C  0.80248631  0.42505941  0.69365961    -0.05400
C1166       C  0.81056619  0.40090545  0.68343453    -0.32800
C1167       C  0.80963614  0.39779674  0.65989088     0.36400
C1168       C  0.80100223  0.41932403  0.64642884    -0.05700
C1169       C  0.79665916  0.44592634  0.65662977    -0.32700
C1170       C  0.79732237  0.44886572  0.68006029     0.36300
H1171       H  0.81395308  0.38198256  0.69370178     0.16700
O1172       O  0.81418335  0.37171914  0.65034872    -0.60200
H1173       H  0.78944759  0.46232588  0.64648590     0.16700
O1174       O  0.78873653  0.47226189  0.68954964    -0.60300
H1175       H  0.81198158  0.49394631  0.69274152     0.43700
H1176       H  0.78997007  0.35037512  0.64974636     0.43700
C1177       C  0.76273159  0.05674082  0.59009473    -0.05400
C1178       C  0.79462364  0.05582783  0.58985600    -0.32800
C1179       C  0.79404673  0.02333145  0.58946981     0.36400
C1180       C  0.76194238  0.49135254  0.59046113    -0.05700
C1181       C  0.72933095  0.99194997  0.59129811    -0.32700
C1182       C  0.72989087  0.02443665  0.59115550     0.36300
H1183       H  0.82010895  0.08036856  0.58912487     0.16700
O1184       O  0.82665912  0.52387011  0.59060829    -0.60200
H1185       H  0.70458016  0.46773601  0.59190189     0.16700
O1186       O  0.69817695  0.02429008  0.59233562    -0.60300
H1187       H  0.68820141  0.01899443  0.57687876     0.43700
H1188       H  0.83368223  0.02852710  0.57306561     0.43700
C1189       C  0.75933803  0.30507573  0.58003027    -0.05400
C1190       C  0.79225342  0.30680322  0.57622432    -0.32800
C1191       C  0.79484172  0.27587751  0.57557197     0.36400
C1192       C  0.76408783  0.24219860  0.57814822    -0.05700
C1193       C  0.73107004  0.24029794  0.58161089    -0.32700
C1194       C  0.72855100  0.27125727  0.58274968     0.36300
H1195       H  0.81639369  0.33233351  0.57408161     0.16700
O1196       O  0.82745215  0.27887543  0.57179794    -0.60200
H1197       H  0.70712244  0.21465778  0.58398756     0.16700
O1198       O  0.69589734  0.26800073  0.58677502    -0.60300
H1199       H  0.68524726  0.26642971  0.57170972     0.43700
H1200       H  0.83953040  0.28442322  0.58664923     0.43700
C1201       C  0.81175793  0.15626329  0.52249117    -0.05400
C1202       C  0.79615073  0.15693067  0.50186523    -0.32800
C1203       C  0.81227730  0.15716235  0.48140702     0.36400
C1204       C  0.84463974  0.15641303  0.48114654    -0.05700
C1205       C  0.85966346  0.15466559  0.50177367    -0.32700
C1206       C  0.84380344  0.15493928  0.52223605     0.36300
H1207       H  0.77141857  0.15750828  0.50156436     0.16700
O1208       O  0.79567823  0.15747986  0.46172892    -0.60200
H1209       H  0.88401073  0.15336154  0.50208893     0.16700
O1210       O  0.85911970  0.15232232  0.54191929    -0.60300
H1211       H  0.87867551  0.17688337  0.54504644     0.43700
H1212       H  0.78038180  0.13204944  0.45768819     0.43700
C1213       C  0.76200292  0.49442631  0.75701732    -0.05400
C1214       C  0.79492468  0.02558970  0.75434180    -0.32800
C1215       C  0.79773269  0.05916070  0.75378183     0.36400
C1216       C  0.76674623  0.06192550  0.75500795    -0.05700
C1217       C  0.73326989  0.03053194  0.75652637    -0.32700
C1218       C  0.73047199  0.99698537  0.75696857     0.36300
H1219       H  0.81977650  0.52434122  0.75573232     0.16700
O1220       O  0.83090590  0.08896802  0.75219157    -0.60200
H1221       H  0.70899038  0.03189579  0.75734663     0.16700
O1222       O  0.69776086  0.46723875  0.75862794    -0.60300
H1223       H  0.69322156  0.46173462  0.77490470     0.43700
H1224       H  0.83867309  0.09611543  0.76793238     0.43700
C1225       C  0.76467879  0.24610466  0.75231356    -0.05400
C1226       C  0.79634558  0.27895986  0.75018276    -0.32800
C1227       C  0.79571590  0.31082069  0.75044408     0.36400
C1228       C  0.76295797  0.31014384  0.75257847    -0.05700
C1229       C  0.73125310  0.27737872  0.75430420    -0.32700
C1230       C  0.73189775  0.24552608  0.75449345     0.36300
H1231       H  0.82180208  0.28005818  0.74865533     0.16700
O1232       O  0.82730284  0.34244401  0.74857923    -0.60200
H1233       H  0.70590157  0.27644407  0.75607529     0.16700
O1234       O  0.70020262  0.21402383  0.75643647    -0.60300
H1235       H  0.69513416  0.21069535  0.77278663     0.43700
H1236       H  0.83018985  0.34810323  0.73226708     0.43700
C1237       C  0.72611921  0.13847552  0.69193725    -0.05400
C1238       C  0.71168546  0.10626033  0.68017221    -0.32800
C1239       C  0.71100951  0.10635057  0.65648159     0.36400
C1240       C  0.72485030  0.13891153  0.64457203    -0.05700
C1241       C  0.73551900  0.17034962  0.65649035    -0.32700
C1242       C  0.73610295  0.17029517  0.67994950     0.36300
H1243       H  0.70424055  0.08164940  0.68917211     0.16700
O1244       O  0.70016195  0.07513497  0.64520569    -0.60200
H1245       H  0.74662820  0.19561251  0.64756517     0.16700
O1246       O  0.75061865  0.20223062  0.69095224    -0.60300
H1247       H  0.72997732  0.20307616  0.69738086     0.43700
H1248       H  0.72178727  0.07286698  0.64399896     0.43700
C1249       C  0.71202985  0.36621753  0.81588983    -0.05400
C1250       C  0.68000816  0.33317360  0.81601886    -0.32800
C1251       C  0.66314424  0.31645680  0.83621233     0.36400
C1252       C  0.67786849  0.33292074  0.85690402    -0.05700
C1253       C  0.70887860  0.36689204  0.85671309    -0.32700
C1254       C  0.72595363  0.38342878  0.83648345     0.36300
H1255       H  0.66843425  0.31958567  0.80036953     0.16700
O1256       O  0.63198986  0.28427997  0.83547425    -0.60200
H1257       H  0.72064317  0.38032644  0.87236883     0.16700
O1258       O  0.75625407  0.41630255  0.83708584    -0.60300
H1259       H  0.74781824  0.43364695  0.83515357     0.43700
H1260       H  0.63940870  0.26631313  0.83310036     0.43700
C1261       C  0.64947941  0.35764524  0.18721002    -0.05400
C1262       C  0.65068979  0.32571153  0.18755979    -0.32800
C1263       C  0.64956623  0.30813928  0.16765511     0.36400
C1264       C  0.64778570  0.32259840  0.14672447    -0.05700
C1265       C  0.64691734  0.35467120  0.14630599    -0.32700
C1266       C  0.64718733  0.37182757  0.16624946     0.36300
H1267       H  0.65184060  0.31379808  0.20342780     0.16700
O1268       O  0.65033693  0.27692963  0.16891835    -0.60200
H1269       H  0.64525801  0.36620944  0.13039972     0.16700
O1270       O  0.64600229  0.40281383  0.16498001    -0.60300
H1271       H  0.62033932  0.39516093  0.16313729     0.43700
H1272       H  0.67595071  0.28413585  0.16777300     0.43700
C1273       C  0.62082116  0.23793116  0.97817339    -0.05400
C1274       C  0.59124021  0.23318378  0.99044015    -0.32800
C1275       C  0.59126621  0.23105825  0.01396683     0.36400
C1276       C  0.62122239  0.23382604  0.02537050    -0.05700
C1277       C  0.64927190  0.23525791  0.01298400    -0.32700
C1278       C  0.64934295  0.23759877  0.98949305     0.36300
H1279       H  0.56969611  0.23455596  0.98194933     0.16700
O1280       O  0.56427017  0.23135642  0.02568953    -0.60200
H1281       H  0.67285731  0.23842239  0.02158437     0.16700
O1282       O  0.67899071  0.24319573  0.97787863    -0.60300
H1283       H  0.69554452  0.26935880  0.97817379     0.43700
H1284       H  0.54920567  0.20660011  0.03135206     0.43700
C1285       C  0.97939184  0.27119634  0.91440102    -0.05400
C1286       C  0.00946009  0.30368724  0.92040093    -0.32800
C1287       C  0.54353051  0.30759765  0.92092177     0.36400
C1288       C  0.54820101  0.27890149  0.91482491    -0.05700
C1289       C  0.51786574  0.24626555  0.90886029    -0.32700
C1290       C  0.98371007  0.24226827  0.90872062     0.36300
H1291       H  0.00646758  0.32616243  0.92499301     0.16700
O1292       O  0.57200994  0.33979874  0.92703508    -0.60200
H1293       H  0.52048619  0.22357950  0.90428735     0.16700
O1294       O  0.95493940  0.21027593  0.90257378    -0.60300
H1295       H  0.95232123  0.21233550  0.88613078     0.43700
H1296       H  0.57260605  0.33909872  0.94368156     0.43700
C1297       C  0.79695451  0.27541227  0.92189496    -0.05400
C1298       C  0.76358036  0.24441378  0.92082379    -0.32800
C1299       C  0.73236033  0.24630966  0.92058694     0.36400
C1300       C  0.73411599  0.27971496  0.92185276    -0.05700
C1301       C  0.76751875  0.31065162  0.92415136    -0.32700
C1302       C  0.79883626  0.30871755  0.92409648     0.36300
H1303       H  0.76163735  0.21861060  0.91934987     0.16700
O1304       O  0.70021166  0.21516961  0.91931701    -0.60200
H1305       H  0.76947879  0.33649048  0.92534858     0.16700
O1306       O  0.83113721  0.33958009  0.92589268    -0.60300
H1307       H  0.83504926  0.34415956  0.94223483     0.43700
H1308       H  0.69705964  0.20863989  0.90320484     0.43700
C1309       C  0.84960411  0.22319007  0.85554567    -0.05400
C1310       C  0.81953195  0.18849498  0.85537820    -0.32800
C1311       C  0.80243989  0.17192115  0.83520078     0.36400
C1312       C  0.81576497  0.18947693  0.81451866    -0.05700
C1313       C  0.84643151  0.22365116  0.81459049    -0.32700
C1314       C  0.86311519  0.24054703  0.83476145     0.38700
H1315       H  0.80852146  0.17433312  0.87103890     0.16700
O1316       O  0.77326937  0.13823381  0.83588691    -0.60200
H1317       H  0.85708644  0.23785909  0.79888558     0.16700
O1318       O  0.89234440  0.27417860  0.83388629    -0.60300
H1319       H  0.91304558  0.27057582  0.83193398     0.43700
H1320       H  0.75269334  0.14165091  0.83889539     0.43700
C1321       C  0.87280866  0.18455704  0.18946755    -0.05400
C1322       C  0.86497724  0.16524127  0.16948132    -0.32800
C1323       C  0.86447860  0.18093388  0.14873986     0.36400
C1324       C  0.87268084  0.21698742  0.14758844    -0.05700
C1325       C  0.88066612  0.23619683  0.16768721    -0.32700
C1326       C  0.88079558  0.22038986  0.18837234     0.36300
H1327       H  0.85917665  0.13785749  0.16992680     0.16700
O1328       O  0.85748928  0.16112042  0.12962073    -0.60200
H1329       H  0.88740899  0.26386627  0.16739491     0.16700
O1330       O  0.89011266  0.24075624  0.20739529    -0.60300
H1331       H  0.91621587  0.25059554  0.20912162     0.43700
H1332       H  0.83109420  0.14736403  0.12838815     0.43700
C1333       C  0.54412907  0.27096599  0.08052713    -0.05400
C1334       C  0.51268771  0.23745530  0.08100954    -0.32800
C1335       C  0.97914810  0.23479931  0.08119727     0.36400
C1336       C  0.97678174  0.26598527  0.08093408    -0.05700
C1337       C  0.00813130  0.29933781  0.07953603    -0.32700
C1338       C  0.54157092  0.30201486  0.07921950     0.36300
H1339       H  0.51408215  0.21319695  0.08173821     0.16700
O1340       O  0.94909100  0.20175812  0.08249713    -0.60200
H1341       H  0.00679579  0.32363813  0.07910063     0.16700
O1342       O  0.57151765  0.33519208  0.07908376    -0.60300
H1343       H  0.57595827  0.34229098  0.06300382     0.43700
H1344       H  0.94407546  0.19697503  0.09879647     0.43700
C1345       C  0.79500319  0.27169961  0.09087670    -0.05400
C1346       C  0.76183479  0.24042540  0.09266673    -0.32800
C1347       C  0.73018957  0.24163338  0.09280702     0.36400
C1348       C  0.73114368  0.27467014  0.09103843    -0.05700
C1349       C  0.76440039  0.30603792  0.08908732    -0.32700
C1350       C  0.79616175  0.30479315  0.08920775     0.36300
H1351       H  0.76035520  0.21476724  0.09396059     0.16700
O1352       O  0.69844636  0.21012173  0.09430544    -0.60200
H1353       H  0.76585749  0.33165070  0.08746250     0.16700
O1354       O  0.82803111  0.33593162  0.08660614    -0.60300
H1355       H  0.83464797  0.34619512  0.10187554     0.43700
H1356       H  0.69126628  0.20255648  0.07850318     0.43700
C1357       C  0.90971259  0.31085616  0.97825353    -0.05400
C1358       C  0.93719702  0.31149826  0.99127418    -0.32800
C1359       C  0.93588957  0.31177136  0.01482879     0.36400
C1360       C  0.90638778  0.31050316  0.02556356    -0.05700
C1361       C  0.88066398  0.31315769  0.01255136    -0.32700
C1362       C  0.88227732  0.31347928  0.98900516     0.36300
H1363       H  0.95804061  0.30871878  0.98325568     0.16700
O1364       O  0.96120746  0.30879260  0.02716941    -0.60200
H1365       H  0.85758276  0.31167748  0.02058017     0.16700
O1366       O  0.85508203  0.31290928  0.97664811    -0.60300
H1367       H  0.83624012  0.28745949  0.97592859     0.43700
H1368       H  0.97889351  0.33351390  0.03155796     0.43700
O1369       O  0.91306432  0.73771104  0.07672407    -0.74300
O1370       O  0.82664413  0.74140322  0.08203970    -0.74400
O1371       O  0.87823758  0.76158150  0.05051467    -0.74400
O1372       O  0.86155788  0.71622208  0.10805314    -0.74500
O1373       O  0.89123184  0.76920924  0.12443630    -0.74400
O1374       O  0.90936060  0.81532564  0.06605496    -0.74400
O1375       O  0.85735686  0.79509871  0.09755600    -0.74400
O1376       O  0.94277572  0.79103903  0.09290969    -0.74400
Ni1377     Ni  0.86863335  0.73734172  0.07879868     1.25400
Ni1378     Ni  0.90107824  0.79452978  0.09591063     1.25400
C1379       C  0.94227174  0.76430014  0.08375165     0.87800
C1380       C  0.82798532  0.76931792  0.09022361     0.87800
C1381       C  0.89738647  0.79546497  0.04865061     0.87800
C1382       C  0.87472992  0.73493297  0.12572120     0.88000
O1383       O  0.83030172  0.74492699  0.92675125    -0.74300
O1384       O  0.91747515  0.74211051  0.92183147    -0.74400
O1385       O  0.88769147  0.76372847  0.95325561    -0.74400
O1386       O  0.85841275  0.72140022  0.89545305    -0.74500
O1387       O  0.88537690  0.77510717  0.87925154    -0.74400
O1388       O  0.91351892  0.81834071  0.93809525    -0.74400
O1389       O  0.94359183  0.79677884  0.90680242    -0.74400
O1390       O  0.85725197  0.79879761  0.91062818    -0.74400
Ni1391     Ni  0.87262109  0.74107386  0.92481892     1.25400
Ni1392     Ni  0.90098788  0.79910719  0.90801621     1.25400
C1393       C  0.82990346  0.77291824  0.91984960     0.87800
C1394       C  0.94526974  0.76987800  0.91417686     0.87800
C1395       C  0.90421198  0.79758431  0.95536562     0.87800
C1396       C  0.86606200  0.74095063  0.87779523     0.88000
O1397       O  0.60750364  0.80069605  0.07619677    -0.74300
O1398       O  0.69763934  0.80395009  0.08233658    -0.74400
O1399       O  0.64605064  0.78192314  0.05054554    -0.74400
O1400       O  0.65907565  0.82465425  0.10784859    -0.74500
O1401       O  0.63190281  0.77110236  0.12430494    -0.74400
O1402       O  0.61764404  0.72740731  0.06586988    -0.74400
O1403       O  0.66928600  0.74989107  0.09803058    -0.74400
O1404       O  0.58041370  0.74687183  0.09230766    -0.74400
Ni1405     Ni  0.65368593  0.80473567  0.07872350     1.25400
Ni1406     Ni  0.62401172  0.74692521  0.09578650     1.25400
C1407       C  0.57903838  0.77292193  0.08312168     0.87800
C1408       C  0.69796716  0.77663044  0.09066131     0.87800
C1409       C  0.62893619  0.74808452  0.04857529     0.87800
C1410       C  0.64671109  0.80524668  0.12548239     0.88000
O1411       O  0.70144637  0.81034553  0.92708808    -0.74300
O1412       O  0.61253074  0.81036889  0.92316986    -0.74400
O1413       O  0.64425138  0.78864440  0.95391910    -0.74400
O1414       O  0.67123403  0.83387417  0.89634430    -0.74500
O1415       O  0.64524745  0.78079935  0.87992538    -0.74400
O1416       O  0.61858918  0.73488828  0.93816149    -0.74400
O1417       O  0.58739682  0.75695988  0.90723814    -0.74400
O1418       O  0.67490185  0.75715564  0.91074846    -0.74400
Ni1419     Ni  0.65819220  0.81278819  0.92565512     1.25400
Ni1420     Ni  0.63055171  0.75565189  0.90836946     1.25400
C1421       C  0.70227731  0.78294126  0.91992446     0.87800
C1422       C  0.58496698  0.78297549  0.91502349     0.87800
C1423       C  0.62793562  0.75467560  0.95561937     0.87800
C1424       C  0.66368022  0.81499360  0.87861252     0.88000
O1425       O  0.79455671  0.71294779  0.74535886    -0.74300
O1426       O  0.79605975  0.62499470  0.74772516    -0.74400
O1427       O  0.77422235  0.65753870  0.71748206    -0.74400
O1428       O  0.81809741  0.68233257  0.77526318    -0.74500
O1429       O  0.76465900  0.65505395  0.79158787    -0.74400
O1430       O  0.71987235  0.63021398  0.73272062    -0.74400
O1431       O  0.74208029  0.59838362  0.76332192    -0.74400
O1432       O  0.74082348  0.68520802  0.76125644    -0.74400
Ni1433     Ni  0.79763719  0.67021853  0.74590884     1.25400
Ni1434     Ni  0.73996474  0.64109474  0.76283994     1.25400
C1435       C  0.76707292  0.71331858  0.75294137     0.87800
C1436       C  0.76881674  0.59697589  0.75567875     0.87800
C1437       C  0.74026946  0.64109621  0.71540678     0.87800
C1438       C  0.79889237  0.67428660  0.79292513     0.88000
O1439       O  0.79207239  0.62028844  0.59482574    -0.74300
O1440       O  0.79317699  0.70885453  0.58660328    -0.74400
O1441       O  0.77222519  0.65923040  0.61954723    -0.74400
O1442       O  0.81443022  0.66979901  0.56190661    -0.74500
O1443       O  0.76054859  0.64197203  0.54600460    -0.74400
O1444       O  0.71745525  0.62882660  0.60486062    -0.74400
O1445       O  0.73833166  0.67944768  0.57207375    -0.74400
O1446       O  0.73812764  0.59186964  0.57894180    -0.74400
Ni1447     Ni  0.79489075  0.66569333  0.59120190     1.25400
Ni1448     Ni  0.73670851  0.63464573  0.57480453     1.25400
C1449       C  0.76460884  0.59141993  0.58825290     0.87800
C1450       C  0.76525270  0.70850635  0.57879979     0.87800
C1451       C  0.73832109  0.64190904  0.62189870     0.87800
C1452       C  0.79472035  0.65642118  0.54453454     0.88000
O1453       O  0.73431259  0.84417078  0.74590622    -0.74300
O1454       O  0.73227416  0.93151872  0.74879396    -0.74400
O1455       O  0.75417967  0.90094284  0.71842584    -0.74400
O1456       O  0.71076964  0.87338842  0.77597742    -0.74500
O1457       O  0.76427524  0.90064201  0.79248456    -0.74400
O1458       O  0.80865382  0.92674552  0.73373901    -0.74400
O1459       O  0.78670308  0.95792785  0.76406461    -0.74400
O1460       O  0.78802420  0.87103310  0.76222181    -0.74400
Ni1461     Ni  0.73098531  0.88666103  0.74674319     1.25400
Ni1462     Ni  0.78882870  0.91514616  0.76378880     1.25400
C1463       C  0.76180226  0.84348274  0.75350372     0.87800
C1464       C  0.75978806  0.95941551  0.75641964     0.87800
C1465       C  0.78810585  0.91756308  0.71642011     0.87800
C1466       C  0.73003917  0.88148629  0.79370577     0.88000
O1467       O  0.73187773  0.92771464  0.59478932    -0.74300
O1468       O  0.72963489  0.83829838  0.58934119    -0.74400
O1469       O  0.75167926  0.88986894  0.62114439    -0.74400
O1470       O  0.70857321  0.87698049  0.56316303    -0.74500
O1471       O  0.76233727  0.90438071  0.54731233    -0.74400
O1472       O  0.80614937  0.91879144  0.60609364    -0.74400
O1473       O  0.78395126  0.86698843  0.57430871    -0.74400
O1474       O  0.78573060  0.95534554  0.57899578    -0.74400
Ni1475     Ni  0.72851658  0.88198289  0.59262835     1.25400
Ni1476     Ni  0.78642551  0.91212273  0.57605373     1.25400
C1477       C  0.75951131  0.95632607  0.58791204     0.87800
C1478       C  0.75689513  0.83804840  0.58120650     0.87800
C1479       C  0.78562612  0.90796760  0.62331383     0.87800
C1480       C  0.72820266  0.88991414  0.54572712     0.88000
O1481       O  0.60957432  0.83624551  0.25737918    -0.74300
O1482       O  0.69872484  0.92428738  0.25459088    -0.74400
O1483       O  0.64574625  0.89153627  0.28501541    -0.74400
O1484       O  0.66218614  0.86692387  0.22690129    -0.74500
O1485       O  0.63527006  0.89401390  0.21095930    -0.74400
O1486       O  0.61763033  0.91829917  0.27011462    -0.74400
O1487       O  0.67064961  0.95088513  0.23953064    -0.74400
O1488       O  0.58269292  0.86360379  0.24169151    -0.74400
Ni1489     Ni  0.65526546  0.87899122  0.25643362     1.25400
Ni1490     Ni  0.62580426  0.90783771  0.23990321     1.25400
C1491       C  0.58128288  0.83585174  0.25034717     0.87800
C1492       C  0.69895456  0.95244400  0.24740749     0.87800
C1493       C  0.62802836  0.90760487  0.28727572     0.87800
C1494       C  0.64987112  0.87454735  0.20940729     0.88000
O1495       O  0.69646973  0.92846579  0.41090509    -0.74300
O1496       O  0.61060345  0.83744952  0.41730438    -0.74400
O1497       O  0.63981151  0.88754978  0.38452582    -0.74400
O1498       O  0.66910110  0.87835417  0.44353960    -0.74500
O1499       O  0.64097252  0.90463727  0.45803112    -0.74400
O1500       O  0.61255559  0.91567227  0.39774141    -0.74400
O1501       O  0.58327475  0.86517745  0.43074291    -0.74400
O1502       O  0.66829055  0.95482185  0.42518801    -0.74400
Ni1503     Ni  0.65487654  0.88187613  0.41363962     1.25400
Ni1504     Ni  0.62512270  0.91086129  0.42848648     1.25400
C1505       C  0.69629302  0.95673368  0.41692017     0.87800
C1506       C  0.58231570  0.83654805  0.42459598     0.87800
C1507       C  0.62235470  0.90376149  0.38122725     0.87800
C1508       C  0.66121949  0.89094833  0.46045778     0.88000
O1509       O  0.91679871  0.70687064  0.25858490    -0.74300
O1510       O  0.82747936  0.61866934  0.25725149    -0.74400
O1511       O  0.88200782  0.65183801  0.28697439    -0.74400
O1512       O  0.86274111  0.67594579  0.22888313    -0.74500
O1513       O  0.88935527  0.64914149  0.21292599    -0.74400
O1514       O  0.90949915  0.62499338  0.27212397    -0.74400
O1515       O  0.85523676  0.59256221  0.24197529    -0.74400
O1516       O  0.94325798  0.67953889  0.24308508    -0.74400
Ni1517     Ni  0.87106533  0.66407873  0.25841830     1.25400
Ni1518     Ni  0.90006122  0.63540488  0.24188861     1.25400
C1519       C  0.94487625  0.70725450  0.25146104     0.87800
C1520       C  0.82696558  0.59075249  0.24977151     0.87800
C1521       C  0.90007327  0.63605181  0.28924159     0.87800
C1522       C  0.87442520  0.66835583  0.21138279     0.88000
O1523       O  0.82836805  0.62160309  0.40939702    -0.74300
O1524       O  0.91711295  0.70876308  0.41770425    -0.74400
O1525       O  0.88816425  0.66014104  0.38465946    -0.74400
O1526       O  0.85612033  0.67022494  0.44224467    -0.74500
O1527       O  0.88061515  0.64088836  0.45828733    -0.74400
O1528       O  0.91090953  0.62832270  0.39964127    -0.74400
O1529       O  0.94111170  0.67790036  0.43232970    -0.74400
O1530       O  0.85254554  0.59173265  0.42533411    -0.74400
Ni1531     Ni  0.87173123  0.66638849  0.41299048     1.25400
Ni1532     Ni  0.89727033  0.63378910  0.42956971     1.25400
C1533       C  0.82614378  0.59230583  0.41602184     0.87800
C1534       C  0.94407339  0.70740556  0.42564611     0.87800
C1535       C  0.90389535  0.64203851  0.38249340     0.87800
C1536       C  0.86166058  0.65610837  0.45968618     0.88000
C1537       C  0.91117804  0.63313913  0.31223244    -0.05400
C1538       C  0.89007884  0.60231398  0.32502164    -0.32800
C1539       C  0.89061706  0.60384252  0.34861163     0.36400
C1540       C  0.91243336  0.63648495  0.35949996    -0.05700
C1541       C  0.93608651  0.66632008  0.34670217    -0.32700
C1542       C  0.93584630  0.66470828  0.32322267     0.36300
H1543       H  0.87059980  0.57806264  0.31677145     0.16700
O1544       O  0.86703519  0.57433226  0.36072315    -0.60200
H1545       H  0.95267040  0.69169585  0.35483417     0.16700
O1546       O  0.95668839  0.69532512  0.31110876    -0.60300
H1547       H  0.97671519  0.69274500  0.30536832     0.43700
H1548       H  0.84458052  0.57522063  0.36102547     0.43700
C1549       C  0.79259706  0.55847329  0.41363161    -0.05400
C1550       C  0.76043039  0.55656939  0.41933809    -0.32800
C1551       C  0.72884228  0.52369150  0.42030507     0.36400
C1552       C  0.72885477  0.99207506  0.41464821    -0.05700
C1553       C  0.76122962  0.49438634  0.40843343    -0.32700
C1554       C  0.79283360  0.52722497  0.40784348     0.36300
H1555       H  0.76004274  0.58044955  0.42403998     0.16700
O1556       O  0.69738942  0.02360742  0.42375786    -0.60200
H1557       H  0.76233407  0.97014862  0.40579541     0.16700
O1558       O  0.82383846  0.52860076  0.40137073    -0.60300
H1559       H  0.83225736  0.52119750  0.41484273     0.43700
H1560       H  0.68751420  0.52621131  0.41303546     0.43700
C1561       C  0.54747917  0.80261786  0.42557544    -0.05400
C1562       C  0.51676367  0.80370283  0.43199392    -0.32800
C1563       C  0.98311052  0.77294934  0.43224657     0.36400
C1564       C  0.97947634  0.74003717  0.42637846    -0.05700
C1565       C  0.00999417  0.73852538  0.42031313    -0.32700
C1566       C  0.54368340  0.76950359  0.41949654     0.36300
H1567       H  0.51857864  0.82864554  0.43660781     0.16700
O1568       O  0.95392618  0.77539563  0.43831256    -0.60200
H1569       H  0.00754107  0.71337024  0.41547853     0.16700
O1570       O  0.57248254  0.76698041  0.41261878    -0.60300
H1571       H  0.57261008  0.76912616  0.39599747     0.43700
H1572       H  0.95116964  0.77026406  0.45469182     0.43700
C1573       C  0.73176744  0.98765511  0.24883811    -0.05400
C1574       C  0.72927476  0.51799849  0.25110214    -0.32800
C1575       C  0.75980954  0.55176499  0.25260984     0.36400
C1576       C  0.79384021  0.55549122  0.25007368    -0.05700
C1577       C  0.79644293  0.52464825  0.24729510    -0.32700
C1578       C  0.76597642  0.49088190  0.24627339     0.36300
H1579       H  0.70289362  0.01613097  0.25252873     0.16700
O1580       O  0.75591429  0.58088145  0.25591920    -0.60200
H1581       H  0.82228807  0.52660529  0.24577878     0.16700
O1582       O  0.76981177  0.96193143  0.24590516    -0.60300
H1583       H  0.77164569  0.95934807  0.22950874     0.43700
H1584       H  0.75381887  0.58212160  0.27241720     0.43700
C1585       C  0.97978812  0.73996557  0.25275342    -0.05400
C1586       C  0.98153012  0.77306002  0.25241610    -0.32800
C1587       C  0.51445089  0.80452045  0.25198585     0.36400
C1588       C  0.54635142  0.80311660  0.25211998    -0.05700
C1589       C  0.54459134  0.77001220  0.25359265    -0.32700
C1590       C  0.01163799  0.73853347  0.25380764     0.36300
H1591       H  0.95731717  0.77461813  0.25194867     0.16700
O1592       O  0.51510017  0.83648825  0.25202617    -0.60200
H1593       H  0.56878391  0.76842024  0.25410631     0.16700
O1594       O  0.01086691  0.70657253  0.25567982    -0.60300
H1595       H  0.01596775  0.70150492  0.24038343     0.43700
H1596       H  0.50960596  0.84017557  0.23633778     0.43700
C1597       C  0.61840675  0.91139615  0.31032291    -0.05400
C1598       C  0.59296142  0.88040807  0.32148633    -0.32800
C1599       C  0.59130048  0.87885467  0.34499441     0.36400
C1600       C  0.61480813  0.90879234  0.35768466    -0.05700
C1601       C  0.63817658  0.94080512  0.34647285    -0.32700
C1602       C  0.64026418  0.94215553  0.32287103     0.36300
H1603       H  0.57647083  0.85634385  0.31202461     0.16700
O1604       O  0.56849401  0.84716859  0.35549660    -0.60200
H1605       H  0.65712759  0.96376120  0.35603720     0.16700
O1606       O  0.66568650  0.97263219  0.31237394    -0.60300
H1607       H  0.68702108  0.96984990  0.31121853     0.43700
H1608       H  0.58109450  0.83334810  0.35563742     0.43700
C1609       C  0.67755572  0.89067117  0.48259886    -0.05400
C1610       C  0.71052030  0.89148496  0.48288583    -0.32800
C1611       C  0.72728459  0.89126823  0.50312329     0.36400
C1612       C  0.71090484  0.88942473  0.52381632    -0.05700
C1613       C  0.67789885  0.88861643  0.52358276    -0.32700
C1614       C  0.66161289  0.88990221  0.50328133     0.36300
H1615       H  0.72378167  0.89280661  0.46724901     0.16700
O1616       O  0.75973111  0.89291247  0.50239338    -0.60200
H1617       H  0.66494585  0.88777513  0.53925799     0.16700
O1618       O  0.62973109  0.88945059  0.50389419    -0.60300
H1619       H  0.63620603  0.91458582  0.50629208     0.43700
H1620       H  0.75406289  0.86777940  0.50163895     0.43700
C1621       C  0.80221795  0.92498298  0.69337172    -0.05400
C1622       C  0.81046725  0.90094317  0.68316287    -0.32800
C1623       C  0.80912144  0.89753318  0.65964292     0.36400
C1624       C  0.79992505  0.91867196  0.64622683    -0.05700
C1625       C  0.79542138  0.94518636  0.65638349    -0.32700
C1626       C  0.79649010  0.94841627  0.67978191     0.36300
H1627       H  0.81423943  0.88227845  0.69344771     0.16700
O1628       O  0.81379590  0.87152595  0.65011298    -0.60200
H1629       H  0.78779656  0.96127877  0.64625369     0.16700
O1630       O  0.78762512  0.97159388  0.68929273    -0.60300
H1631       H  0.81064603  0.99408394  0.69131502     0.43700
H1632       H  0.78964152  0.85008512  0.64958620     0.43700
C1633       C  0.76348324  0.55704092  0.59078587    -0.05400
C1634       C  0.79541426  0.55617773  0.59096829    -0.32800
C1635       C  0.79486644  0.52368690  0.59058171     0.36400
C1636       C  0.76112870  0.99097795  0.58986743    -0.05700
C1637       C  0.73010713  0.49225799  0.59168098    -0.32700
C1638       C  0.73064092  0.52471147  0.59163339     0.36300
H1639       H  0.82090406  0.58073817  0.59054987     0.16700
O1640       O  0.82584674  0.02356273  0.58896632    -0.60200
H1641       H  0.70380208  0.96744503  0.59179401     0.16700
O1642       O  0.69888480  0.52450593  0.59266527    -0.60300
H1643       H  0.68903262  0.51918151  0.57718053     0.43700
H1644       H  0.83531008  0.52943355  0.57488664     0.43700
C1645       C  0.75811902  0.80438635  0.58002300    -0.05400
C1646       C  0.79127058  0.80628488  0.57703393    -0.32800
C1647       C  0.79400852  0.77545515  0.57650826     0.36400
C1648       C  0.76319380  0.74166427  0.57840935    -0.05700
C1649       C  0.72991399  0.73959008  0.58102115    -0.32700
C1650       C  0.72722649  0.77048800  0.58200320     0.36300
H1651       H  0.81548956  0.83189278  0.57546173     0.16700
O1652       O  0.82689495  0.77869140  0.57354387    -0.60200
H1653       H  0.70587041  0.71386972  0.58282407     0.16700
O1654       O  0.69430230  0.76710186  0.58508155    -0.60300
H1655       H  0.68474192  0.76604971  0.56972562     0.43700
H1656       H  0.83814815  0.78407096  0.58864933     0.43700
C1657       C  0.81205659  0.65673368  0.52283613    -0.05400
C1658       C  0.79678925  0.65811331  0.50222739    -0.32800
C1659       C  0.81282200  0.65826126  0.48173901     0.36400
C1660       C  0.84470053  0.65658052  0.48140536    -0.05700
C1661       C  0.85946118  0.65429543  0.50202513    -0.32700
C1662       C  0.84375411  0.65477410  0.52252429     0.36300
H1663       H  0.77238710  0.65931602  0.50196682     0.16700
O1664       O  0.79660065  0.65946087  0.46209930    -0.60200
H1665       H  0.88348724  0.65240786  0.50230863     0.16700
O1666       O  0.85884198  0.65171333  0.54218507    -0.60300
H1667       H  0.87843296  0.67618355  0.54549131     0.43700
H1668       H  0.78097614  0.63420910  0.45778673     0.43700
C1669       C  0.76146453  0.99427817  0.75594638    -0.05400
C1670       C  0.79551995  0.52579333  0.75616570    -0.32800
C1671       C  0.79830977  0.55936306  0.75556980     0.36400
C1672       C  0.76725314  0.56207945  0.75593691    -0.05700
C1673       C  0.73373753  0.53066339  0.75693276    -0.32700
C1674       C  0.73095299  0.49711688  0.75746278     0.36300
H1675       H  0.81910900  0.02407362  0.75333711     0.16700
O1676       O  0.83152898  0.58923490  0.75480365    -0.60200
H1677       H  0.70942422  0.53202131  0.75720808     0.16700
O1678       O  0.69734905  0.96712790  0.75869963    -0.60300
H1679       H  0.69323819  0.96235468  0.77506431     0.43700
H1680       H  0.83848803  0.59561986  0.77073574     0.43700
C1681       C  0.76540468  0.74651467  0.75236804    -0.05400
C1682       C  0.79687956  0.77941921  0.74963770    -0.32800
C1683       C  0.79608135  0.81122999  0.74985071     0.36400
C1684       C  0.76333966  0.81043195  0.75248264    -0.05700
C1685       C  0.73183599  0.77763879  0.75477727    -0.32700
C1686       C  0.73266232  0.74588056  0.75507905     0.36300
H1687       H  0.82231469  0.78060226  0.74769396     0.16700
O1688       O  0.82747076  0.84291992  0.74745938    -0.60200
H1689       H  0.70651234  0.77662746  0.75695064     0.16700
O1690       O  0.70114150  0.71439304  0.75771760    -0.60300
H1691       H  0.69684407  0.71165650  0.77416127     0.43700
H1692       H  0.82965205  0.84823338  0.73109895     0.43700
C1693       C  0.72598384  0.63745661  0.69238256    -0.05400
C1694       C  0.71331779  0.60541477  0.68063746    -0.32800
C1695       C  0.71260084  0.60539656  0.65695413     0.36400
C1696       C  0.72457548  0.63767724  0.64498833    -0.05700
C1697       C  0.73352170  0.66875924  0.65687559    -0.32700
C1698       C  0.73418203  0.66880471  0.68035538     0.36300
H1699       H  0.70735126  0.58120238  0.68965903     0.16700
O1700       O  0.70362517  0.57454711  0.64573015    -0.60200
H1701       H  0.74329469  0.69384742  0.64791185     0.16700
O1702       O  0.74711889  0.70061106  0.69132629    -0.60300
H1703       H  0.72578343  0.70022842  0.69763555     0.43700
H1704       H  0.72611335  0.57382707  0.64462348     0.43700
C1705       C  0.71188858  0.86639909  0.81547750    -0.05400
C1706       C  0.68124327  0.83229281  0.81577823    -0.32800
C1707       C  0.66464976  0.81559455  0.83602946     0.36400
C1708       C  0.67819550  0.83317615  0.85661235    -0.05700
C1709       C  0.70776005  0.86813611  0.85617605    -0.32700
C1710       C  0.72460490  0.88463806  0.83588178     0.36300
H1711       H  0.67066405  0.81789655  0.80023517     0.16700
O1712       O  0.63501213  0.78221475  0.83542904    -0.60200
H1713       H  0.71860989  0.88246696  0.87169936     0.16700
O1714       O  0.75347363  0.91851479  0.83622057    -0.60300
H1715       H  0.74338331  0.93445970  0.83412897     0.43700
H1716       H  0.64436008  0.76557954  0.83405717     0.43700
C1717       C  0.65069649  0.85825052  0.18764412    -0.05400
C1718       C  0.65042431  0.82557093  0.18797721    -0.32800
C1719       C  0.64910924  0.80796368  0.16804456     0.36400
C1720       C  0.64863356  0.82312637  0.14709526    -0.05700
C1721       C  0.64944520  0.85605963  0.14671838    -0.32700
C1722       C  0.64993324  0.87328440  0.16668612     0.36300
H1723       H  0.65044136  0.81307254  0.20385311     0.16700
O1724       O  0.64828175  0.77595783  0.16931299    -0.60200
H1725       H  0.64892553  0.86825954  0.13082257     0.16700
O1726       O  0.65050255  0.90516597  0.16546480    -0.60300
H1727       H  0.62526007  0.89876100  0.16308062     0.43700
H1728       H  0.67360676  0.78206644  0.16832313     0.43700
C1729       C  0.62170941  0.73923476  0.97837082    -0.05400
C1730       C  0.59226156  0.73497116  0.99056831    -0.32800
C1731       C  0.59192170  0.73234842  0.01407802     0.36400
C1732       C  0.62144875  0.73427945  0.02557193    -0.05700
C1733       C  0.64932052  0.73521723  0.01322921    -0.32700
C1734       C  0.64968024  0.73788945  0.98973019     0.36300
H1735       H  0.57108378  0.73696324  0.98204670     0.16700
O1736       O  0.56501845  0.73291421  0.02574288    -0.60200
H1737       H  0.67257808  0.73767155  0.02188642     0.16700
O1738       O  0.67904891  0.74261603  0.97816261    -0.60300
H1739       H  0.69619078  0.76864854  0.97848866     0.43700
H1740       H  0.54976899  0.70818451  0.03140515     0.43700
C1741       C  0.98047589  0.77236656  0.91457767    -0.05400
C1742       C  0.01061050  0.80504271  0.92024410    -0.32800
C1743       C  0.54472504  0.80901731  0.92069532     0.36400
C1744       C  0.54934706  0.78018104  0.91487822    -0.05700
C1745       C  0.51896577  0.74742078  0.90918793    -0.32700
C1746       C  0.98479961  0.74337664  0.90909765     0.36300
H1747       H  0.00764009  0.82760487  0.92463614     0.16700
O1748       O  0.57328091  0.84139220  0.92645561    -0.60200
H1749       H  0.52154925  0.72464558  0.90480253     0.16700
O1750       O  0.95599972  0.71124037  0.90320932    -0.60300
H1751       H  0.95330755  0.71290772  0.88673911     0.43700
H1752       H  0.57403806  0.84120099  0.94310600     0.43700
C1753       C  0.79753110  0.77566642  0.92218180    -0.05400
C1754       C  0.76405721  0.74469812  0.92180885    -0.32800
C1755       C  0.73291536  0.74677180  0.92157095     0.36400
C1756       C  0.73489782  0.78032613  0.92206331    -0.05700
C1757       C  0.76840074  0.81126026  0.92377124    -0.32700
C1758       C  0.79960060  0.80914624  0.92379797     0.36300
H1759       H  0.76195138  0.71876554  0.92089081     0.16700
O1760       O  0.70062144  0.71569549  0.92110171    -0.60200
H1761       H  0.77051387  0.83721342  0.92443661     0.16700
O1762       O  0.83197699  0.84002249  0.92510136    -0.60300
H1763       H  0.83686708  0.84448850  0.94139222     0.43700
H1764       H  0.69700143  0.70799877  0.90520508     0.43700
C1765       C  0.85073520  0.72327593  0.85579926    -0.05400
C1766       C  0.82057632  0.68864144  0.85560546    -0.32800
C1767       C  0.80356137  0.67210072  0.83540022     0.36400
C1768       C  0.81699404  0.68966991  0.81472798    -0.05700
C1769       C  0.84789532  0.72366674  0.81482821    -0.32700
C1770       C  0.86455145  0.74049255  0.83502141     0.38700
H1771       H  0.80941882  0.67453210  0.87126073     0.16700
O1772       O  0.77433859  0.63844119  0.83604891    -0.60200
H1773       H  0.85873273  0.73782170  0.79913256     0.16700
O1774       O  0.89406282  0.77393577  0.83417546    -0.60300
H1775       H  0.91460477  0.76998305  0.83258647     0.43700
H1776       H  0.75378362  0.64190222  0.83902538     0.43700
C1777       C  0.87250679  0.68427968  0.18950811    -0.05400
C1778       C  0.86513490  0.66510227  0.16949236    -0.32800
C1779       C  0.86442453  0.68071388  0.14876958     0.36400
C1780       C  0.87203527  0.71657499  0.14767156    -0.05700
C1781       C  0.87935505  0.73558994  0.16780276    -0.32700
C1782       C  0.87959644  0.71983216  0.18847731     0.36300
H1783       H  0.85988881  0.63790227  0.16989820     0.16700
O1784       O  0.85789334  0.66107015  0.12961470    -0.60200
H1785       H  0.88550660  0.76308179  0.16754127     0.16700
O1786       O  0.88815322  0.74000630  0.20755477    -0.60300
H1787       H  0.91432471  0.75051215  0.20940787     0.43700
H1788       H  0.83151934  0.64693855  0.12831291     0.43700
C1789       C  0.54389293  0.77048150  0.08092481    -0.05400
C1790       C  0.51262919  0.73711276  0.08362673    -0.32800
C1791       C  0.97903072  0.73430503  0.08381418     0.36400
C1792       C  0.97637643  0.76514070  0.08126043    -0.05700
C1793       C  0.00736727  0.79818253  0.07767527    -0.32700
C1794       C  0.54088705  0.80101478  0.07732079     0.36300
H1795       H  0.51420599  0.71314638  0.08614387     0.16700
O1796       O  0.94925254  0.70163802  0.08746348    -0.60200
H1797       H  0.00565869  0.82213877  0.07549206     0.16700
O1798       O  0.57054048  0.83406604  0.07470241    -0.60300
H1799       H  0.57371503  0.83787293  0.05821894     0.43700
H1800       H  0.94597603  0.69961110  0.10400697     0.43700
C1801       C  0.79522191  0.77191838  0.09104057    -0.05400
C1802       C  0.76206846  0.74073387  0.09318686    -0.32800
C1803       C  0.73047008  0.74202013  0.09341915     0.36400
C1804       C  0.73145001  0.77505008  0.09130381    -0.05700
C1805       C  0.76471202  0.80633874  0.08908112    -0.32700
C1806       C  0.79643841  0.80502007  0.08918990     0.36300
H1807       H  0.76056889  0.71508636  0.09471432     0.16700
O1808       O  0.69874595  0.71058111  0.09539452    -0.60200
H1809       H  0.76620117  0.83194330  0.08726293     0.16700
O1810       O  0.82832627  0.83608030  0.08642273    -0.60300
H1811       H  0.83508840  0.84651127  0.10164456     0.43700
H1812       H  0.69145477  0.70221216  0.07973181     0.43700
C1813       C  0.91001428  0.81150257  0.97841568    -0.05400
C1814       C  0.93781563  0.81274510  0.99140483    -0.32800
C1815       C  0.93638049  0.81264609  0.01497137     0.36400
C1816       C  0.90648192  0.81047530  0.02573462    -0.05700
C1817       C  0.88040382  0.81256458  0.01276692    -0.32700
C1818       C  0.88209741  0.81319439  0.98922445     0.36300
H1819       H  0.95902780  0.81064674  0.98334058     0.16700
O1820       O  0.96204294  0.81019965  0.02726137    -0.60200
H1821       H  0.85703545  0.81040377  0.02081938     0.16700
O1822       O  0.85455471  0.81197161  0.97691012    -0.60300
H1823       H  0.83610482  0.78637814  0.97620117     0.43700
H1824       H  0.97967410  0.83508800  0.03138629     0.43700
loop_ 
_geom_bond_atom_site_label_1 
_geom_bond_atom_site_label_2 
_geom_bond_distance 
_geom_bond_site_symmetry_2 
_ccdc_geom_bond_type 
O1           Ni9   1.920       .  S
O1           C11   1.282       .  A
O2           Ni9   1.923       .  S
O2           C12   1.284       .  A
O3           Ni9   1.907       .  S
O3           C13   1.278       .  A
O4           Ni9   1.912       .  S
O4           C14   1.279       .  A
O5          Ni10   1.941       .  S
O5           C14   1.288       .  A
O6          Ni10   1.936       .  S
O6           C13   1.284       .  A
O7          Ni10   1.909       .  S
O7           C12   1.278       .  A
O8          Ni10   1.895       .  S
O8           C11   1.278       .  A
Ni9         Ni10   2.387       .  S
C11         C424   1.470       .  S
C12         C433   1.480       .  S
C13         C448   1.472       .  S
C14         C412   1.497       .  S
O15         Ni23   1.924       .  S
O15          C25   1.284       .  A
O16         Ni23   1.928       .  S
O16          C26   1.284       .  A
O17         Ni23   1.906       .  S
O17          C27   1.278       .  A
O18         Ni23   1.910       .  S
O18          C28   1.279       .  A
O19         Ni24   1.946       .  S
O19          C28   1.289       .  A
O20         Ni24   1.938       .  S
O20          C27   1.284       .  A
O21         Ni24   1.900       .  S
O21          C26   1.277       .  A
O22         Ni24   1.896       .  S
O22          C25   1.276       .  A
Ni23        Ni24   2.388       .  S
C25         C385   1.472       .  S
C26         C373   1.472       .  S
C27         C445   1.473       .  S
C28         C397   1.496       .  S
O29         Ni37   1.919       .  S
O29          C39   1.283       .  A
O30         Ni37   1.928       .  S
O30          C40   1.284       .  A
O31         Ni37   1.898       .  S
O31          C41   1.276       .  A
O32         Ni37   1.905       .  S
O32          C42   1.278       .  A
O33         Ni38   1.940       .  S
O33          C42   1.287       .  A
O34         Ni38   1.935       .  S
O34          C41   1.283       .  A
O35         Ni38   1.904       .  S
O35          C40   1.278       .  A
O36         Ni38   1.898       .  S
O36          C39   1.277       .  A
Ni37        Ni38   2.388       .  S
C39         C421   1.473       .  S
C40         C436   1.485       .  S
C41         C364   1.466       .  S
C42         C352   1.488       .  S
O43         Ni51   1.929       .  S
O43          C53   1.285       .  A
O44         Ni51   1.930       .  S
O44          C54   1.286       .  A
O45         Ni51   1.903       .  S
O45          C55   1.277       .  A
O46         Ni51   1.911       .  S
O46          C56   1.279       .  A
O47         Ni52   1.934       .  S
O47          C56   1.286       .  A
O48         Ni52   1.932       .  S
O48          C55   1.283       .  A
O49         Ni52   1.897       .  S
O49          C54   1.277       .  A
O50         Ni52   1.892       .  S
O50          C53   1.276       .  A
Ni51        Ni52   2.387       .  S
C53         C388   1.477       .  S
C54         C376   1.485       .  S
C55         C361   1.467       .  S
C56         C340   1.489       .  S
O57         Ni65   1.920       .  S
O57          C67   1.284       .  A
O58         Ni65   1.927       .  S
O58          C68   1.284       .  A
O59         Ni65   1.901       .  S
O59          C69   1.277       .  A
O60         Ni65   1.906       .  S
O60          C70   1.278       .  A
O61         Ni66   1.944       .  S
O61          C70   1.288       .  A
O62         Ni66   1.942       .  S
O62          C69   1.285       .  A
O63         Ni66   1.899       .  S
O63          C68   1.277       .  A
O64         Ni66   1.895       .  S
O64          C67   1.276       .  A
Ni65        Ni66   2.387       .  S
C67         C313   1.474       .  S
C68         C304   1.480       .  S
C69         C325   1.475       .  S
C70         C400   1.490       .  S
O71         Ni79   1.920       .  S
O71          C81   1.283       .  A
O72         Ni79   1.926       .  S
O72          C82   1.284       .  A
O73         Ni79   1.904       .  S
O73          C83   1.278       .  A
O74         Ni79   1.909       .  S
O74          C84   1.278       .  A
O75         Ni80   1.947       .  S
O75          C84   1.289       .  A
O76         Ni80   1.939       .  S
O76          C83   1.284       .  A
O77         Ni80   1.913       .  S
O77          C82   1.280       .  A
O78         Ni80   1.900       .  S
O78          C81   1.277       .  A
Ni79        Ni80   2.387       .  S
C81         C265   1.473       .  S
C82         C280   1.483       .  S
C83         C328   1.474       .  S
C84         C289   1.495       .  S
O85         Ni93   1.919       .  S
O85          C95   1.283       .  A
O86         Ni93   1.923       .  S
O86          C96   1.283       .  A
O87         Ni93   1.903       .  S
O87          C97   1.277       .  A
O88         Ni93   1.904       .  S
O88          C98   1.277       .  A
O89         Ni94   1.944       .  S
O89          C98   1.288       .  A
O90         Ni94   1.941       .  S
O90          C97   1.285       .  A
O91         Ni94   1.903       .  S
O91          C96   1.278       .  A
O92         Ni94   1.898       .  S
O92          C95   1.277       .  A
Ni93        Ni94   2.389       .  S
C95         C316   1.469       .  S
C96         C301   1.478       .  S
C97         C253   1.474       .  S
C98         C337   1.487       .  S
O99        Ni107   1.918       .  S
O99         C109   1.283       .  A
O100       Ni107   1.930       .  S
O100        C110   1.285       .  A
O101       Ni107   1.908       .  S
O101        C111   1.279       .  A
O102       Ni107   1.915       .  S
O102        C112   1.280       .  A
O103       Ni108   1.942       .  S
O103        C112   1.288       .  A
O104       Ni108   1.938       .  S
O104        C111   1.284       .  A
O105       Ni108   1.911       .  S
O105        C110   1.280       .  A
O106       Ni108   1.900       .  S
O106        C109   1.277       .  A
Ni107      Ni108   2.386       .  S
C109        C268   1.473       .  S
C110        C277   1.490       .  S
C111        C256   1.475       .  S
C112        C244   1.495       .  S
O113       Ni121   1.916       .  S
O113        C123   1.282       .  A
O114       Ni121   1.924       .  S
O114        C124   1.283       .  A
O115       Ni121   1.903       .  S
O115        C125   1.277       .  A
O116       Ni121   1.907       .  S
O116        C126   1.279       .  A
O117       Ni122   1.944       .  S
O117        C126   1.288       .  A
O118       Ni122   1.938       .  S
O118        C125   1.284       .  A
O119       Ni122   1.903       .  S
O119        C124   1.278       .  A
O120       Ni122   1.893       .  S
O120        C123   1.276       .  A
Ni121      Ni122   2.388       .  S
C123        C220   1.469       .  S
C124        C205   1.476       .  S
C125        C229   1.473       .  S
C126        C349   1.493       .  S
O127       Ni135   1.925       .  S
O127        C137   1.285       .  A
O128       Ni135   1.933       .  S
O128        C138   1.285       .  A
O129       Ni135   1.903       .  S
O129        C139   1.277       .  A
O130       Ni135   1.909       .  S
O130        C140   1.279       .  A
O131       Ni136   1.948       .  S
O131        C140   1.288       .  A
O132       Ni136   1.944       .  S
O132        C139   1.286       .  A
O133       Ni136   1.902       .  S
O133        C138   1.279       .  A
O134       Ni136   1.893       .  S
O134        C137   1.275       .  A
Ni135      Ni136   2.385       .  S
C137        C184   1.479       .  S
C138        C193   1.489       .  S
C139        C232   1.475       .  S
C140        C241   1.496       .  S
O141       Ni149   1.917       .  S
O141        C151   1.283       .  A
O142       Ni149   1.929       .  S
O142        C152   1.284       .  A
O143       Ni149   1.901       .  S
O143        C153   1.277       .  A
O144       Ni149   1.908       .  S
O144        C154   1.278       .  A
O145       Ni150   1.942       .  S
O145        C154   1.287       .  A
O146       Ni150   1.937       .  S
O146        C153   1.284       .  A
O147       Ni150   1.899       .  S
O147        C152   1.278       .  A
O148       Ni150   1.892       .  S
O148        C151   1.276       .  A
Ni149      Ni150   2.389       .  S
C151        C217   1.468       .  S
C152        C208   1.482       .  S
C153        C169   1.470       .  S
C154        C409   1.487       .  S
O155       Ni163   1.920       .  S
O155        C165   1.282       .  A
O156       Ni163   1.923       .  S
O156        C166   1.283       .  A
O157       Ni163   1.908       .  S
O157        C167   1.279       .  A
O158       Ni163   1.911       .  S
O158        C168   1.279       .  A
O159       Ni164   1.945       .  S
O159        C168   1.288       .  A
O160       Ni164   1.933       .  S
O160        C167   1.283       .  A
O161       Ni164   1.911       .  S
O161        C166   1.279       .  A
O162       Ni164   1.897       .  S
O162        C165   1.277       .  A
Ni163      Ni164   2.389       .  S
C165        C181   1.467       .  S
C166        C196   1.476       .  S
C167        C172   1.471       .  S
C168        C292   1.495       .  S
C169        C170   1.402       .  A
C169        C174   1.408       .  A
C170        C171   1.405       .  A
C170        H175   1.084       .  S
C171        C172   1.409       .  A
C171        O176   1.372       .  S
C172        C173   1.401       .  A
C173        C174   1.399       .  A
C173        H177   1.084       .  S
C174        O178   1.372       .  S
O176        H180   0.992       .  S
O178        H179   0.992       .  S
C181        C182   1.398       .  A
C181        C186   1.408       .  A
C182        C183   1.397       .  A
C182        H187   1.084       .  S
C183        C640   1.417   1_545  A
C183        O644   1.372       .  S
C184        C639   1.418       .  A
C184        C641   1.403       .  A
C185        C186   1.395   1_565  A
C185        C640   1.403       .  A
C185        H645   1.083       .  S
C186        O190   1.372       .  S
O188        C639   1.372       .  S
O188        H648   0.993       .  S
H189        C641   1.083       .  S
O190        H191   0.992       .  S
H192        O644   0.993       .  S
C193        C194   1.410       .  A
C193        C198   1.412       .  A
C194       C1107   1.397   1_455  A
C194        H199   1.083       .  S
C195        C196   1.403       .  A
C195       C1106   1.397       .  A
C195        O200   1.372       .  S
C196        C197   1.406       .  A
C197       C1110   1.404       .  A
C197        H201   1.084       .  S
C198       C1109   1.404       .  A
C198        O202   1.371       .  S
O200        H204   0.992       .  S
O202        H203   0.992       .  S
C205        C662   1.407       .  A
C205        C666   1.405       .  A
C206        C207   1.401       .  A
C206        C661   1.408   1_545  A
C206        H667   1.084       .  S
C207        C208   1.408       .  A
C207        O212   1.372       .  S
C208        C209   1.408       .  A
C209        C210   1.397   1_545  A
C209        H213   1.083       .  S
C210        C661   1.405       .  A
C210        O670   1.371       .  S
H211        C662   1.084       .  S
O212        H216   0.991       .  S
O214        C666   1.372       .  S
O214        H215   0.992       .  S
C217        C218   1.399       .  A
C217        C222   1.412       .  A
C218       C1131   1.394       .  A
C218        H223   1.084       .  S
C219        C220   1.412       .  A
C219       C1130   1.394   1_455  A
C219        O224   1.372       .  S
C220        C221   1.400       .  A
C221       C1134   1.395       .  A
C221        H225   1.084       .  S
C222       C1133   1.395       .  A
C222        O226   1.372       .  S
O224        H228   0.992       .  S
O226        H227   0.991       .  S
C229        C230   1.403       .  A
C229        C234   1.407       .  A
C230        C231   1.401       .  A
C230        H235   1.084       .  S
C231        C232   1.406       .  A
C231        O236   1.372       .  S
C232        C233   1.406       .  A
C233        C234   1.407       .  A
C233        H237   1.084       .  S
C234        O238   1.372       .  S
O236        H240   0.992       .  S
O238        H239   0.992       .  S
C241        C242   1.411       .  A
C241        C246   1.409       .  A
C242        C243   1.404       .  A
C242        H247   1.083       .  S
C243        C244   1.408       .  A
C243        O248   1.371       .  S
C244        C245   1.412       .  A
C245        C246   1.409       .  A
C245        H249   1.083       .  S
C246        O250   1.371       .  S
O248        H252   0.991       .  S
O250        H251   0.992       .  S
C253        C254   1.406       .  A
C253        C258   1.406       .  A
C254        C255   1.407       .  A
C254        H259   1.084       .  S
C255        C256   1.407       .  A
C255        O260   1.371       .  S
C256        C257   1.404       .  A
C257        C258   1.400       .  A
C257        H261   1.084       .  S
C258        O262   1.372       .  S
O260        H264   0.992       .  S
O262        H263   0.993       .  S
C265        C266   1.401       .  A
C265        C270   1.411       .  A
C266        C267   1.397       .  A
C266        H271   1.084       .  S
C267        C724   1.413   1_545  A
C267        O728   1.372       .  S
C268        C723   1.412       .  A
C268        C725   1.401       .  A
C269        C270   1.397   1_565  A
C269        C724   1.401       .  A
C269        H729   1.084       .  S
C270        O274   1.372       .  S
O272        C723   1.372       .  S
O272        H732   0.992       .  S
H273        C725   1.084       .  S
O274        H275   0.992       .  S
H276        O728   0.992       .  S
C277        C278   1.409       .  A
C277        C282   1.411       .  A
C278        C279   1.401       .  A
C278        H283   1.083       .  S
C279        C280   1.406       .  A
C279        O284   1.372       .  S
C280        C281   1.407       .  A
C281        C282   1.403       .  A
C281        H285   1.084       .  S
C282        O286   1.371       .  S
O284        H288   0.991       .  S
O286        H287   0.992       .  S
C289        C290   1.402       .  A
C289        C294   1.417       .  A
C290        C291   1.406       .  A
C290        H295   1.083       .  S
C291        C292   1.418       .  A
C291        O296   1.372       .  S
C292        C293   1.403       .  A
C293        C294   1.406       .  A
C293        H297   1.083       .  S
C294        O298   1.372       .  S
O296        H300   0.992       .  S
O298        H299   0.992       .  S
C301        C758   1.407       .  A
C301        C762   1.407       .  A
C302        C303   1.399       .  A
C302        C757   1.407   1_545  A
C302        H763   1.084       .  S
C303        C304   1.408       .  A
C303        O308   1.371       .  S
C304        C305   1.408       .  A
C305        C306   1.398   1_545  A
C305        H309   1.083       .  S
C306        C757   1.406       .  A
C306        O766   1.372       .  S
H307        C758   1.084       .  S
O308        H312   0.992       .  S
O310        C762   1.372       .  S
O310        H311   0.992       .  S
C313        C314   1.402       .  A
C313        C318   1.414       .  A
C314        C315   1.396       .  A
C314        H319   1.084       .  S
C315        C316   1.410       .  A
C315        O320   1.372       .  S
C316        C317   1.399       .  A
C317        C318   1.395       .  A
C317        H321   1.084       .  S
C318        O322   1.372       .  S
O320        H324   0.992       .  S
O322        H323   0.992       .  S
C325        C326   1.405       .  A
C325        C330   1.408       .  A
C326        C327   1.410       .  A
C326        H331   1.083       .  S
C327        C328   1.411       .  A
C327        O332   1.372       .  S
C328        C329   1.400       .  A
C329        C330   1.396       .  A
C329        H333   1.084       .  S
C330        O334   1.372       .  S
O332        H336   0.992       .  S
O334        H335   0.993       .  S
C337        C338   1.408       .  A
C337        C342   1.407       .  A
C338        C339   1.402       .  A
C338        H343   1.084       .  S
C339        C340   1.408       .  A
C339        O344   1.372       .  S
C340        C341   1.411       .  A
C341        C342   1.405       .  A
C341        H345   1.083       .  S
C342        O346   1.371       .  S
O344        H348   0.992       .  S
O346        H347   0.992       .  S
C349        C350   1.411       .  A
C349        C354   1.408       .  A
C350        C351   1.403       .  A
C350        H355   1.083       .  S
C351        C352   1.406       .  A
C351        O356   1.371       .  S
C352        C353   1.410       .  A
C353        C354   1.405       .  A
C353        H357   1.084       .  S
C354        O358   1.371       .  S
O356        H360   0.993       .  S
O358        H359   0.993       .  S
C361        C362   1.401       .  A
C361        C366   1.407       .  A
C362        C363   1.402   1_556  A
C362        H367   1.084       .  S
C363        C364   1.409       .  A
C363        O368   1.372       .  S
C364        C365   1.400       .  A
C365        C366   1.400   1_554  A
C365        H369   1.084       .  S
C366        O370   1.372       .  S
O368        H372   0.992       .  S
O370        H371   0.993       .  S
C373        C374   1.404       .  A
C373        C378   1.403       .  A
C374       C1287   1.398       .  A
C374        H379   1.084       .  S
C375        C376   1.409       .  A
C375       C1286   1.398       .  A
C375        O380   1.371       .  S
C376        C377   1.412       .  A
C377       C1290   1.400   1_455  A
C377        H381   1.083       .  S
C378       C1289   1.400       .  A
C378        O382   1.372       .  S
O380        H384   0.991       .  S
O382        H383   0.992       .  S
C385        C386   1.397       .  A
C385        C390   1.413       .  A
C386        C387   1.394       .  A
C386        H391   1.084       .  S
C387        C388   1.415       .  A
C387        O392   1.372       .  S
C388        C389   1.402       .  A
C389        C390   1.400       .  A
C389        H393   1.084       .  S
C390        O394   1.372       .  S
O392        H396   0.992       .  S
O394        H395   0.991       .  S
C397        C398   1.413       .  A
C397        C402   1.410       .  A
C398        C399   1.406       .  A
C398        H403   1.083       .  S
C399        C400   1.406       .  A
C399        O404   1.371       .  S
C400        C401   1.409       .  A
C401        C402   1.405       .  A
C401        H405   1.084       .  S
C402        O406   1.371       .  S
O404        H408   0.992       .  S
O406        H407   0.992       .  S
C409        C410   1.401       .  A
C409        C414   1.413       .  A
C410        C411   1.407       .  A
C410        H415   1.084       .  S
C411        C412   1.420       .  A
C411        O416   1.371       .  S
C412        C413   1.404       .  A
C413        C414   1.403       .  A
C413        H417   1.083       .  S
C414        O418   1.372       .  S
O416        H420   0.992       .  S
O418        H419   0.993       .  S
C421        C422   1.408       .  A
C421        C426   1.406       .  A
C422       C1335   1.398   1_455  A
C422        H427   1.084       .  S
C423        C424   1.406       .  A
C423       C1334   1.398       .  A
C423        O428   1.372       .  S
C424        C425   1.404       .  A
C425       C1338   1.393       .  A
C425        H429   1.084       .  S
C426       C1337   1.393       .  A
C426        O430   1.371       .  S
O428        H432   0.992       .  S
O430        H431   0.992       .  S
C433        C434   1.400       .  A
C433        C438   1.413       .  A
C434        C435   1.397       .  A
C434        H439   1.084       .  S
C435        C436   1.415       .  A
C435        O440   1.371       .  S
C436        C437   1.405       .  A
C437        C438   1.403       .  A
C437        H441   1.083       .  S
C438        O442   1.372       .  S
O440        H444   0.994       .  S
O442        H443   0.991       .  S
C445        C446   1.402       .  A
C445        C450   1.408       .  A
C446        C447   1.404   1_556  A
C446        H451   1.084       .  S
C447        C448   1.409       .  A
C447        O452   1.372       .  S
C448        C449   1.401       .  A
C449        C450   1.403   1_554  A
C449        H453   1.084       .  S
C450        O454   1.372       .  S
O452        H456   0.992       .  S
O454        H455   0.992       .  S
O457       Ni465   1.921       .  S
O457        C467   1.282       .  A
O458       Ni465   1.924       .  S
O458        C468   1.284       .  A
O459       Ni465   1.908       .  S
O459        C469   1.279       .  A
O460       Ni465   1.911       .  S
O460        C470   1.279       .  A
O461       Ni466   1.941       .  S
O461        C470   1.288       .  A
O462       Ni466   1.935       .  S
O462        C469   1.283       .  A
O463       Ni466   1.909       .  S
O463        C468   1.278       .  A
O464       Ni466   1.896       .  S
O464        C467   1.277       .  A
Ni465      Ni466   2.388       .  S
C467        C880   1.467       .  S
C468        C889   1.479       .  S
C469        C904   1.473       .  S
C470        C868   1.496       .  S
O471       Ni479   1.926       .  S
O471        C481   1.285       .  A
O472       Ni479   1.929       .  S
O472        C482   1.284       .  A
O473       Ni479   1.906       .  S
O473        C483   1.278       .  A
O474       Ni479   1.910       .  S
O474        C484   1.279       .  A
O475       Ni480   1.946       .  S
O475        C484   1.289       .  A
O476       Ni480   1.939       .  S
O476        C483   1.284       .  A
O477       Ni480   1.899       .  S
O477        C482   1.277       .  A
O478       Ni480   1.894       .  S
O478        C481   1.276       .  A
Ni479      Ni480   2.388       .  S
C481        C841   1.473       .  S
C482        C829   1.473       .  S
C483        C901   1.473       .  S
C484        C853   1.496       .  S
O485       Ni493   1.922       .  S
O485        C495   1.284       .  A
O486       Ni493   1.930       .  S
O486        C496   1.285       .  A
O487       Ni493   1.898       .  S
O487        C497   1.276       .  A
O488       Ni493   1.905       .  S
O488        C498   1.278       .  A
O489       Ni494   1.941       .  S
O489        C498   1.288       .  A
O490       Ni494   1.938       .  S
O490        C497   1.284       .  A
O491       Ni494   1.902       .  S
O491        C496   1.278       .  A
O492       Ni494   1.896       .  S
O492        C495   1.277       .  A
Ni493      Ni494   2.387       .  S
C495        C877   1.476       .  S
C496        C892   1.485       .  S
C497        C820   1.468       .  S
C498        C808   1.490       .  S
O499       Ni507   1.929       .  S
O499        C509   1.285       .  A
O500       Ni507   1.931       .  S
O500        C510   1.285       .  A
O501       Ni507   1.905       .  S
O501        C511   1.278       .  A
O502       Ni507   1.912       .  S
O502        C512   1.279       .  A
O503       Ni508   1.933       .  S
O503        C512   1.286       .  A
O504       Ni508   1.932       .  S
O504        C511   1.283       .  A
O505       Ni508   1.898       .  S
O505        C510   1.277       .  A
O506       Ni508   1.892       .  S
O506        C509   1.276       .  A
Ni507      Ni508   2.387       .  S
C509        C844   1.476       .  S
C510        C832   1.485       .  S
C511        C817   1.469       .  S
C512        C796   1.491       .  S
O513       Ni521   1.923       .  S
O513        C523   1.284       .  A
O514       Ni521   1.929       .  S
O514        C524   1.285       .  A
O515       Ni521   1.903       .  S
O515        C525   1.278       .  A
O516       Ni521   1.907       .  S
O516        C526   1.278       .  A
O517       Ni522   1.944       .  S
O517        C526   1.288       .  A
O518       Ni522   1.942       .  S
O518        C525   1.285       .  A
O519       Ni522   1.899       .  S
O519        C524   1.277       .  A
O520       Ni522   1.896       .  S
O520        C523   1.276       .  A
Ni521      Ni522   2.387       .  S
C523        C769   1.477       .  S
C524        C760   1.480       .  S
C525        C781   1.475       .  S
C526        C856   1.490       .  S
O527       Ni535   1.920       .  S
O527        C537   1.283       .  A
O528       Ni535   1.926       .  S
O528        C538   1.284       .  A
O529       Ni535   1.905       .  S
O529        C539   1.278       .  A
O530       Ni535   1.911       .  S
O530        C540   1.279       .  A
O531       Ni536   1.947       .  S
O531        C540   1.289       .  A
O532       Ni536   1.940       .  S
O532        C539   1.284       .  A
O533       Ni536   1.913       .  S
O533        C538   1.280       .  A
O534       Ni536   1.899       .  S
O534        C537   1.277       .  A
Ni535      Ni536   2.387       .  S
C537        C721   1.473       .  S
C538        C736   1.484       .  S
C539        C784   1.475       .  S
C540        C745   1.496       .  S
O541       Ni549   1.920       .  S
O541        C551   1.283       .  A
O542       Ni549   1.923       .  S
O542        C552   1.283       .  A
O543       Ni549   1.901       .  S
O543        C553   1.277       .  A
O544       Ni549   1.903       .  S
O544        C554   1.277       .  A
O545       Ni550   1.944       .  S
O545        C554   1.288       .  A
O546       Ni550   1.939       .  S
O546        C553   1.284       .  A
O547       Ni550   1.903       .  S
O547        C552   1.278       .  A
O548       Ni550   1.899       .  S
O548        C551   1.277       .  A
Ni549      Ni550   2.389       .  S
C551        C772   1.470       .  S
C552        C757   1.477       .  S
C553        C709   1.471       .  S
C554        C793   1.485       .  S
O555       Ni563   1.920       .  S
O555        C565   1.283       .  A
O556       Ni563   1.931       .  S
O556        C566   1.285       .  A
O557       Ni563   1.908       .  S
O557        C567   1.279       .  A
O558       Ni563   1.913       .  S
O558        C568   1.279       .  A
O559       Ni564   1.938       .  S
O559        C568   1.287       .  A
O560       Ni564   1.935       .  S
O560        C567   1.283       .  A
O561       Ni564   1.910       .  S
O561        C566   1.280       .  A
O562       Ni564   1.900       .  S
O562        C565   1.277       .  A
Ni563      Ni564   2.386       .  S
C565        C724   1.475       .  S
C566        C733   1.489       .  S
C567        C712   1.473       .  S
C568        C700   1.492       .  S
O569       Ni577   1.917       .  S
O569        C579   1.283       .  A
O570       Ni577   1.925       .  S
O570        C580   1.284       .  A
O571       Ni577   1.902       .  S
O571        C581   1.277       .  A
O572       Ni577   1.908       .  S
O572        C582   1.279       .  A
O573       Ni578   1.944       .  S
O573        C582   1.288       .  A
O574       Ni578   1.938       .  S
O574        C581   1.284       .  A
O575       Ni578   1.903       .  S
O575        C580   1.278       .  A
O576       Ni578   1.893       .  S
O576        C579   1.276       .  A
Ni577      Ni578   2.388       .  S
C579        C676   1.470       .  S
C580        C661   1.478       .  S
C581        C685   1.472       .  S
C582        C805   1.492       .  S
O583       Ni591   1.924       .  S
O583        C593   1.285       .  A
O584       Ni591   1.931       .  S
O584        C594   1.285       .  A
O585       Ni591   1.902       .  S
O585        C595   1.277       .  A
O586       Ni591   1.907       .  S
O586        C596   1.278       .  A
O587       Ni592   1.946       .  S
O587        C596   1.288       .  A
O588       Ni592   1.942       .  S
O588        C595   1.285       .  A
O589       Ni592   1.904       .  S
O589        C594   1.279       .  A
O590       Ni592   1.895       .  S
O590        C593   1.276       .  A
Ni591      Ni592   2.385       .  S
C593        C640   1.479       .  S
C594        C649   1.489       .  S
C595        C688   1.474       .  S
C596        C697   1.492       .  S
O597       Ni605   1.918       .  S
O597        C607   1.283       .  A
O598       Ni605   1.928       .  S
O598        C608   1.284       .  A
O599       Ni605   1.899       .  S
O599        C609   1.277       .  A
O600       Ni605   1.906       .  S
O600        C610   1.278       .  A
O601       Ni606   1.943       .  S
O601        C610   1.287       .  A
O602       Ni606   1.939       .  S
O602        C609   1.284       .  A
O603       Ni606   1.898       .  S
O603        C608   1.278       .  A
O604       Ni606   1.892       .  S
O604        C607   1.276       .  A
Ni605      Ni606   2.389       .  S
C607        C673   1.468       .  S
C608        C664   1.482       .  S
C609        C625   1.471       .  S
C610        C865   1.487       .  S
O611       Ni619   1.921       .  S
O611        C621   1.282       .  A
O612       Ni619   1.923       .  S
O612        C622   1.283       .  A
O613       Ni619   1.910       .  S
O613        C623   1.279       .  A
O614       Ni619   1.912       .  S
O614        C624   1.279       .  A
O615       Ni620   1.947       .  S
O615        C624   1.289       .  A
O616       Ni620   1.935       .  S
O616        C623   1.283       .  A
O617       Ni620   1.911       .  S
O617        C622   1.279       .  A
O618       Ni620   1.898       .  S
O618        C621   1.277       .  A
Ni619      Ni620   2.389       .  S
C621        C637   1.465       .  S
C622        C652   1.476       .  S
C623        C628   1.474       .  S
C624        C748   1.497       .  S
C625        C626   1.401       .  A
C625        C630   1.409       .  A
C626        C627   1.405       .  A
C626        H631   1.084       .  S
C627        C628   1.409       .  A
C627        O632   1.371       .  S
C628        C629   1.402       .  A
C629        C630   1.399       .  A
C629        H633   1.084       .  S
C630        O634   1.373       .  S
O632        H636   0.992       .  S
O634        H635   0.992       .  S
C637        C638   1.398       .  A
C637        C642   1.407       .  A
C638        C639   1.397       .  A
C638        H643   1.084       .  S
C641        C642   1.396       .  A
C642        O646   1.372       .  S
O646        H647   0.992       .  S
C649        C650   1.410       .  A
C649        C654   1.412       .  A
C650       C1563   1.398   1_455  A
C650        H655   1.083       .  S
C651       C1562   1.398       .  A
C651        C652   1.403       .  A
C651        O656   1.372       .  S
C652        C653   1.406       .  A
C653       C1566   1.403       .  A
C653        H657   1.084       .  S
C654       C1565   1.403       .  A
C654        O658   1.371       .  S
O656        H660   0.992       .  S
O658        H659   0.992       .  S
C662        C663   1.400       .  A
C663        C664   1.409       .  A
C663        O668   1.372       .  S
C664        C665   1.409       .  A
C665        C666   1.397       .  A
C665        H669   1.083       .  S
O668        H672   0.991       .  S
O670        H671   0.992       .  S
C673        C674   1.399       .  A
C673        C678   1.412       .  A
C674       C1587   1.394       .  A
C674        H679   1.084       .  S
C675       C1586   1.394   1_455  A
C675        C676   1.412       .  A
C675        O680   1.372       .  S
C676        C677   1.400       .  A
C677       C1590   1.395       .  A
C677        H681   1.084       .  S
C678       C1589   1.395       .  A
C678        O682   1.373       .  S
O680        H684   0.992       .  S
O682        H683   0.991       .  S
C685        C686   1.403       .  A
C685        C690   1.406       .  A
C686        C687   1.400       .  A
C686        H691   1.084       .  S
C687        C688   1.406       .  A
C687        O692   1.372       .  S
C688        C689   1.406       .  A
C689        C690   1.407       .  A
C689        H693   1.084       .  S
C690        O694   1.372       .  S
O692        H696   0.992       .  S
O694        H695   0.993       .  S
C697        C698   1.410       .  A
C697        C702   1.408       .  A
C698        C699   1.403       .  A
C698        H703   1.083       .  S
C699        C700   1.408       .  A
C699        O704   1.371       .  S
C700        C701   1.412       .  A
C701        C702   1.408       .  A
C701        H705   1.083       .  S
C702        O706   1.371       .  S
O704        H708   0.991       .  S
O706        H707   0.992       .  S
C709        C710   1.406       .  A
C709        C714   1.406       .  A
C710        C711   1.407       .  A
C710        H715   1.084       .  S
C711        C712   1.406       .  A
C711        O716   1.371       .  S
C712        C713   1.403       .  A
C713        C714   1.399       .  A
C713        H717   1.084       .  S
C714        O718   1.372       .  S
O716        H720   0.992       .  S
O718        H719   0.993       .  S
C721        C722   1.401       .  A
C721        C726   1.411       .  A
C722        C723   1.398       .  A
C722        H727   1.084       .  S
C725        C726   1.396       .  A
C726        O730   1.372       .  S
O730        H731   0.992       .  S
C733        C734   1.409       .  A
C733        C738   1.411       .  A
C734        C735   1.401       .  A
C734        H739   1.083       .  S
C735        C736   1.407       .  A
C735        O740   1.372       .  S
C736        C737   1.408       .  A
C737        C738   1.404       .  A
C737        H741   1.084       .  S
C738        O742   1.371       .  S
O740        H744   0.991       .  S
O742        H743   0.992       .  S
C745        C746   1.402       .  A
C745        C750   1.417       .  A
C746        C747   1.407       .  A
C746        H751   1.083       .  S
C747        C748   1.418       .  A
C747        O752   1.372       .  S
C748        C749   1.403       .  A
C749        C750   1.407       .  A
C749        H753   1.083       .  S
C750        O754   1.372       .  S
O752        H756   0.992       .  S
O754        H755   0.992       .  S
C758        C759   1.399       .  A
C759        C760   1.408       .  A
C759        O764   1.371       .  S
C760        C761   1.408       .  A
C761        C762   1.398       .  A
C761        H765   1.084       .  S
O764        H768   0.992       .  S
O766        H767   0.992       .  S
C769        C770   1.403       .  A
C769        C774   1.415       .  A
C770        C771   1.397       .  A
C770        H775   1.083       .  S
C771        C772   1.410       .  A
C771        O776   1.372       .  S
C772        C773   1.398       .  A
C773        C774   1.395       .  A
C773        H777   1.084       .  S
C774        O778   1.372       .  S
O776        H780   0.992       .  S
O778        H779   0.992       .  S
C781        C782   1.404       .  A
C781        C786   1.408       .  A
C782        C783   1.409       .  A
C782        H787   1.083       .  S
C783        C784   1.411       .  A
C783        O788   1.372       .  S
C784        C785   1.401       .  A
C785        C786   1.397       .  A
C785        H789   1.084       .  S
C786        O790   1.372       .  S
O788        H792   0.992       .  S
O790        H791   0.993       .  S
C793        C794   1.407       .  A
C793        C798   1.406       .  A
C794        C795   1.402       .  A
C794        H799   1.084       .  S
C795        C796   1.409       .  A
C795        O800   1.372       .  S
C796        C797   1.411       .  A
C797        C798   1.405       .  A
C797        H801   1.083       .  S
C798        O802   1.371       .  S
O800        H804   0.993       .  S
O802        H803   0.992       .  S
C805        C806   1.411       .  A
C805        C810   1.408       .  A
C806        C807   1.404       .  A
C806        H811   1.083       .  S
C807        C808   1.407       .  A
C807        O812   1.371       .  S
C808        C809   1.411       .  A
C809        C810   1.405       .  A
C809        H813   1.084       .  S
C810        O814   1.371       .  S
O812        H816   0.993       .  S
O814        H815   0.993       .  S
C817        C818   1.401       .  A
C817        C822   1.408       .  A
C818        C819   1.402   1_556  A
C818        H823   1.084       .  S
C819        C820   1.409       .  A
C819        O824   1.372       .  S
C820        C821   1.401       .  A
C821        C822   1.401   1_554  A
C821        H825   1.084       .  S
C822        O826   1.372       .  S
O824        H828   0.992       .  S
O826        H827   0.993       .  S
C829        C830   1.405       .  A
C829        C834   1.403       .  A
C830       C1743   1.398       .  A
C830        H835   1.084       .  S
C831       C1742   1.398       .  A
C831        C832   1.409       .  A
C831        O836   1.371       .  S
C832        C833   1.412       .  A
C833       C1746   1.399   1_455  A
C833        H837   1.083       .  S
C834       C1745   1.399       .  A
C834        O838   1.372       .  S
O836        H840   0.991       .  S
O838        H839   0.992       .  S
C841        C842   1.398       .  A
C841        C846   1.413       .  A
C842        C843   1.395       .  A
C842        H847   1.084       .  S
C843        C844   1.414       .  A
C843        O848   1.372       .  S
C844        C845   1.401       .  A
C845        C846   1.399       .  A
C845        H849   1.084       .  S
C846        O850   1.372       .  S
O848        H852   0.992       .  S
O850        H851   0.991       .  S
C853        C854   1.412       .  A
C853        C858   1.409       .  A
C854        C855   1.406       .  A
C854        H859   1.083       .  S
C855        C856   1.406       .  A
C855        O860   1.371       .  S
C856        C857   1.409       .  A
C857        C858   1.405       .  A
C857        H861   1.084       .  S
C858        O862   1.371       .  S
O860        H864   0.991       .  S
O862        H863   0.992       .  S
C865        C866   1.401       .  A
C865        C870   1.414       .  A
C866        C867   1.407       .  A
C866        H871   1.084       .  S
C867        C868   1.419       .  A
C867        O872   1.371       .  S
C868        C869   1.404       .  A
C869        C870   1.402       .  A
C869        H873   1.083       .  S
C870        O874   1.372       .  S
O872        H876   0.992       .  S
O874        H875   0.992       .  S
C877        C878   1.409       .  A
C877        C882   1.407       .  A
C878       C1791   1.398   1_455  A
C878        H883   1.084       .  S
C879       C1790   1.398       .  A
C879        C880   1.404       .  A
C879        O884   1.372       .  S
C880        C881   1.403       .  A
C881       C1794   1.394       .  A
C881        H885   1.084       .  S
C882       C1793   1.394       .  A
C882        O886   1.371       .  S
O884        H888   0.992       .  S
O886        H887   0.992       .  S
C889        C890   1.399       .  A
C889        C894   1.413       .  A
C890        C891   1.397       .  A
C890        H895   1.084       .  S
C891        C892   1.415       .  A
C891        O896   1.371       .  S
C892        C893   1.404       .  A
C893        C894   1.403       .  A
C893        H897   1.083       .  S
C894        O898   1.372       .  S
O896        H900   0.994       .  S
O898        H899   0.991       .  S
C901        C902   1.403       .  A
C901        C906   1.408       .  A
C902        C903   1.404   1_556  A
C902        H907   1.084       .  S
C903        C904   1.409       .  A
C903        O908   1.372       .  S
C904        C905   1.401       .  A
C905        C906   1.403   1_554  A
C905        H909   1.084       .  S
C906        O910   1.372       .  S
O908        H912   0.992       .  S
O910        H911   0.992       .  S
O913       Ni921   1.920       .  S
O913        C923   1.282       .  A
O914       Ni921   1.923       .  S
O914        C924   1.284       .  A
O915       Ni921   1.907       .  S
O915        C925   1.278       .  A
O916       Ni921   1.912       .  S
O916        C926   1.279       .  A
O917       Ni922   1.941       .  S
O917        C926   1.288       .  A
O918       Ni922   1.936       .  S
O918        C925   1.284       .  A
O919       Ni922   1.909       .  S
O919        C924   1.278       .  A
O920       Ni922   1.895       .  S
O920        C923   1.278       .  A
Ni921      Ni922   2.387       .  S
C923       C1336   1.470       .  S
C924       C1345   1.480       .  S
C925       C1360   1.472       .  S
C926       C1324   1.497       .  S
O927       Ni935   1.924       .  S
O927        C937   1.284       .  A
O928       Ni935   1.928       .  S
O928        C938   1.284       .  A
O929       Ni935   1.906       .  S
O929        C939   1.278       .  A
O930       Ni935   1.910       .  S
O930        C940   1.279       .  A
O931       Ni936   1.946       .  S
O931        C940   1.289       .  A
O932       Ni936   1.938       .  S
O932        C939   1.284       .  A
O933       Ni936   1.900       .  S
O933        C938   1.277       .  A
O934       Ni936   1.896       .  S
O934        C937   1.276       .  A
Ni935      Ni936   2.388       .  S
C937       C1297   1.472       .  S
C938       C1285   1.472       .  S
C939       C1357   1.473       .  S
C940       C1309   1.496       .  S
O941       Ni949   1.919       .  S
O941        C951   1.283       .  A
O942       Ni949   1.928       .  S
O942        C952   1.284       .  A
O943       Ni949   1.898       .  S
O943        C953   1.276       .  A
O944       Ni949   1.905       .  S
O944        C954   1.278       .  A
O945       Ni950   1.940       .  S
O945        C954   1.287       .  A
O946       Ni950   1.935       .  S
O946        C953   1.283       .  A
O947       Ni950   1.904       .  S
O947        C952   1.278       .  A
O948       Ni950   1.898       .  S
O948        C951   1.277       .  A
Ni949      Ni950   2.388       .  S
C951       C1333   1.473       .  S
C952       C1348   1.485       .  S
C953       C1276   1.466       .  S
C954       C1264   1.488       .  S
O955       Ni963   1.929       .  S
O955        C965   1.285       .  A
O956       Ni963   1.930       .  S
O956        C966   1.286       .  A
O957       Ni963   1.903       .  S
O957        C967   1.277       .  A
O958       Ni963   1.911       .  S
O958        C968   1.279       .  A
O959       Ni964   1.934       .  S
O959        C968   1.286       .  A
O960       Ni964   1.932       .  S
O960        C967   1.283       .  A
O961       Ni964   1.897       .  S
O961        C966   1.277       .  A
O962       Ni964   1.892       .  S
O962        C965   1.276       .  A
Ni963      Ni964   2.387       .  S
C965       C1300   1.477       .  S
C966       C1288   1.485       .  S
C967       C1273   1.467       .  S
C968       C1252   1.489       .  S
O969       Ni977   1.920       .  S
O969        C979   1.284       .  A
O970       Ni977   1.927       .  S
O970        C980   1.284       .  A
O971       Ni977   1.901       .  S
O971        C981   1.277       .  A
O972       Ni977   1.906       .  S
O972        C982   1.278       .  A
O973       Ni978   1.944       .  S
O973        C982   1.288       .  A
O974       Ni978   1.942       .  S
O974        C981   1.285       .  A
O975       Ni978   1.899       .  S
O975        C980   1.277       .  A
O976       Ni978   1.895       .  S
O976        C979   1.276       .  A
Ni977      Ni978   2.387       .  S
C979       C1225   1.474       .  S
C980       C1216   1.480       .  S
C981       C1237   1.475       .  S
C982       C1312   1.490       .  S
O983       Ni991   1.920       .  S
O983        C993   1.283       .  A
O984       Ni991   1.926       .  S
O984        C994   1.284       .  A
O985       Ni991   1.904       .  S
O985        C995   1.278       .  A
O986       Ni991   1.909       .  S
O986        C996   1.278       .  A
O987       Ni992   1.947       .  S
O987        C996   1.289       .  A
O988       Ni992   1.939       .  S
O988        C995   1.284       .  A
O989       Ni992   1.913       .  S
O989        C994   1.280       .  A
O990       Ni992   1.900       .  S
O990        C993   1.277       .  A
Ni991      Ni992   2.387       .  S
C993       C1177   1.473       .  S
C994       C1192   1.483       .  S
C995       C1240   1.474       .  S
C996       C1201   1.495       .  S
O997      Ni1005   1.919       .  S
O997       C1007   1.283       .  A
O998      Ni1005   1.923       .  S
O998       C1008   1.283       .  A
O999      Ni1005   1.903       .  S
O999       C1009   1.277       .  A
O1000     Ni1005   1.904       .  S
O1000      C1010   1.277       .  A
O1001     Ni1006   1.944       .  S
O1001      C1010   1.288       .  A
O1002     Ni1006   1.941       .  S
O1002      C1009   1.285       .  A
O1003     Ni1006   1.903       .  S
O1003      C1008   1.278       .  A
O1004     Ni1006   1.898       .  S
O1004      C1007   1.277       .  A
Ni1005    Ni1006   2.389       .  S
C1007      C1228   1.469       .  S
C1008      C1213   1.478       .  S
C1009      C1165   1.474       .  S
C1010      C1249   1.487       .  S
O1011     Ni1019   1.918       .  S
O1011      C1021   1.283       .  A
O1012     Ni1019   1.930       .  S
O1012      C1022   1.285       .  A
O1013     Ni1019   1.908       .  S
O1013      C1023   1.279       .  A
O1014     Ni1019   1.915       .  S
O1014      C1024   1.280       .  A
O1015     Ni1020   1.942       .  S
O1015      C1024   1.288       .  A
O1016     Ni1020   1.938       .  S
O1016      C1023   1.284       .  A
O1017     Ni1020   1.911       .  S
O1017      C1022   1.280       .  A
O1018     Ni1020   1.900       .  S
O1018      C1021   1.277       .  A
Ni1019    Ni1020   2.386       .  S
C1021      C1180   1.473       .  S
C1022      C1189   1.490       .  S
C1023      C1168   1.475       .  S
C1024      C1156   1.495       .  S
O1025     Ni1033   1.916       .  S
O1025      C1035   1.282       .  A
O1026     Ni1033   1.924       .  S
O1026      C1036   1.283       .  A
O1027     Ni1033   1.903       .  S
O1027      C1037   1.277       .  A
O1028     Ni1033   1.907       .  S
O1028      C1038   1.279       .  A
O1029     Ni1034   1.944       .  S
O1029      C1038   1.288       .  A
O1030     Ni1034   1.938       .  S
O1030      C1037   1.284       .  A
O1031     Ni1034   1.903       .  S
O1031      C1036   1.278       .  A
O1032     Ni1034   1.893       .  S
O1032      C1035   1.276       .  A
Ni1033    Ni1034   2.388       .  S
C1035      C1132   1.469       .  S
C1036      C1117   1.476       .  S
C1037      C1141   1.473       .  S
C1038      C1261   1.493       .  S
O1039     Ni1047   1.925       .  S
O1039      C1049   1.285       .  A
O1040     Ni1047   1.933       .  S
O1040      C1050   1.285       .  A
O1041     Ni1047   1.903       .  S
O1041      C1051   1.277       .  A
O1042     Ni1047   1.909       .  S
O1042      C1052   1.279       .  A
O1043     Ni1048   1.948       .  S
O1043      C1052   1.288       .  A
O1044     Ni1048   1.944       .  S
O1044      C1051   1.286       .  A
O1045     Ni1048   1.902       .  S
O1045      C1050   1.279       .  A
O1046     Ni1048   1.893       .  S
O1046      C1049   1.275       .  A
Ni1047    Ni1048   2.385       .  S
C1049      C1096   1.479       .  S
C1050      C1105   1.489       .  S
C1051      C1144   1.475       .  S
C1052      C1153   1.496       .  S
O1053     Ni1061   1.917       .  S
O1053      C1063   1.283       .  A
O1054     Ni1061   1.929       .  S
O1054      C1064   1.284       .  A
O1055     Ni1061   1.901       .  S
O1055      C1065   1.277       .  A
O1056     Ni1061   1.908       .  S
O1056      C1066   1.278       .  A
O1057     Ni1062   1.942       .  S
O1057      C1066   1.287       .  A
O1058     Ni1062   1.937       .  S
O1058      C1065   1.284       .  A
O1059     Ni1062   1.899       .  S
O1059      C1064   1.278       .  A
O1060     Ni1062   1.892       .  S
O1060      C1063   1.276       .  A
Ni1061    Ni1062   2.389       .  S
C1063      C1129   1.468       .  S
C1064      C1120   1.482       .  S
C1065      C1081   1.470       .  S
C1066      C1321   1.487       .  S
O1067     Ni1075   1.920       .  S
O1067      C1077   1.282       .  A
O1068     Ni1075   1.923       .  S
O1068      C1078   1.283       .  A
O1069     Ni1075   1.908       .  S
O1069      C1079   1.279       .  A
O1070     Ni1075   1.911       .  S
O1070      C1080   1.279       .  A
O1071     Ni1076   1.945       .  S
O1071      C1080   1.288       .  A
O1072     Ni1076   1.933       .  S
O1072      C1079   1.283       .  A
O1073     Ni1076   1.911       .  S
O1073      C1078   1.279       .  A
O1074     Ni1076   1.897       .  S
O1074      C1077   1.277       .  A
Ni1075    Ni1076   2.389       .  S
C1077      C1093   1.467       .  S
C1078      C1108   1.476       .  S
C1079      C1084   1.471       .  S
C1080      C1204   1.495       .  S
C1081      C1082   1.402       .  A
C1081      C1086   1.408       .  A
C1082      C1083   1.405       .  A
C1082      H1087   1.084       .  S
C1083      C1084   1.409       .  A
C1083      O1088   1.372       .  S
C1084      C1085   1.401       .  A
C1085      C1086   1.399       .  A
C1085      H1089   1.084       .  S
C1086      O1090   1.372       .  S
O1088      H1092   0.992       .  S
O1090      H1091   0.992       .  S
C1093      C1094   1.398       .  A
C1093      C1098   1.408       .  A
C1094      C1095   1.397       .  A
C1094      H1099   1.084       .  S
C1095      C1552   1.417   1_545  A
C1095      O1556   1.372       .  S
C1096      C1551   1.418       .  A
C1096      C1553   1.403       .  A
C1097      C1552   1.403       .  A
C1097      C1098   1.395   1_565  A
C1097      H1557   1.083       .  S
C1098      O1102   1.372       .  S
O1100      C1551   1.372       .  S
O1100      H1560   0.993       .  S
H1101      C1553   1.083       .  S
O1102      H1103   0.992       .  S
H1104      O1556   0.993       .  S
C1105      C1106   1.410       .  A
C1105      C1110   1.412       .  A
C1106      H1111   1.083       .  S
C1107      C1108   1.403       .  A
C1107      O1112   1.372       .  S
C1108      C1109   1.406   1_655  A
C1109      H1113   1.084       .  S
C1110      O1114   1.371       .  S
O1112      H1116   0.992       .  S
O1114      H1115   0.992       .  S
C1117      C1574   1.407       .  A
C1117      C1578   1.405       .  A
C1118      C1573   1.408   1_545  A
C1118      C1119   1.401       .  A
C1118      H1579   1.084       .  S
C1119      C1120   1.408       .  A
C1119      O1124   1.372       .  S
C1120      C1121   1.408       .  A
C1121      C1122   1.397   1_545  A
C1121      H1125   1.083       .  S
C1122      C1573   1.405       .  A
C1122      O1582   1.371       .  S
H1123      C1574   1.084       .  S
O1124      H1128   0.991       .  S
O1126      C1578   1.372       .  S
O1126      H1127   0.992       .  S
C1129      C1130   1.399       .  A
C1129      C1134   1.412   1_655  A
C1130      H1135   1.084       .  S
C1131      C1132   1.412       .  A
C1131      O1136   1.372       .  S
C1132      C1133   1.400       .  A
C1133      H1137   1.084       .  S
C1134      O1138   1.372       .  S
O1136      H1140   0.992       .  S
O1138      H1139   0.991       .  S
C1141      C1142   1.403       .  A
C1141      C1146   1.407       .  A
C1142      C1143   1.401       .  A
C1142      H1147   1.084       .  S
C1143      C1144   1.406       .  A
C1143      O1148   1.372       .  S
C1144      C1145   1.406       .  A
C1145      C1146   1.407       .  A
C1145      H1149   1.084       .  S
C1146      O1150   1.372       .  S
O1148      H1152   0.992       .  S
O1150      H1151   0.992       .  S
C1153      C1154   1.411       .  A
C1153      C1158   1.409       .  A
C1154      C1155   1.404       .  A
C1154      H1159   1.083       .  S
C1155      C1156   1.408       .  A
C1155      O1160   1.371       .  S
C1156      C1157   1.412       .  A
C1157      C1158   1.409       .  A
C1157      H1161   1.083       .  S
C1158      O1162   1.371       .  S
O1160      H1164   0.991       .  S
O1162      H1163   0.992       .  S
C1165      C1166   1.406       .  A
C1165      C1170   1.406       .  A
C1166      C1167   1.407       .  A
C1166      H1171   1.084       .  S
C1167      C1168   1.407       .  A
C1167      O1172   1.371       .  S
C1168      C1169   1.404       .  A
C1169      C1170   1.400       .  A
C1169      H1173   1.084       .  S
C1170      O1174   1.372       .  S
O1172      H1176   0.992       .  S
O1174      H1175   0.993       .  S
C1177      C1178   1.401       .  A
C1177      C1182   1.411       .  A
C1178      C1179   1.397       .  A
C1178      H1183   1.084       .  S
C1179      C1636   1.413   1_545  A
C1179      O1640   1.372       .  S
C1180      C1635   1.412       .  A
C1180      C1637   1.401       .  A
C1181      C1636   1.401       .  A
C1181      C1182   1.397   1_565  A
C1181      H1641   1.084       .  S
C1182      O1186   1.372       .  S
O1184      C1635   1.372       .  S
O1184      H1644   0.992       .  S
H1185      C1637   1.084       .  S
O1186      H1187   0.992       .  S
H1188      O1640   0.992       .  S
C1189      C1190   1.409       .  A
C1189      C1194   1.411       .  A
C1190      C1191   1.401       .  A
C1190      H1195   1.083       .  S
C1191      C1192   1.406       .  A
C1191      O1196   1.372       .  S
C1192      C1193   1.407       .  A
C1193      C1194   1.403       .  A
C1193      H1197   1.084       .  S
C1194      O1198   1.371       .  S
O1196      H1200   0.991       .  S
O1198      H1199   0.992       .  S
C1201      C1202   1.402       .  A
C1201      C1206   1.417       .  A
C1202      C1203   1.406       .  A
C1202      H1207   1.083       .  S
C1203      C1204   1.418       .  A
C1203      O1208   1.372       .  S
C1204      C1205   1.403       .  A
C1205      C1206   1.406       .  A
C1205      H1209   1.083       .  S
C1206      O1210   1.372       .  S
O1208      H1212   0.992       .  S
O1210      H1211   0.992       .  S
C1213      C1670   1.407       .  A
C1213      C1674   1.407       .  A
C1214      C1669   1.407   1_545  A
C1214      C1215   1.399       .  A
C1214      H1675   1.084       .  S
C1215      C1216   1.408       .  A
C1215      O1220   1.371       .  S
C1216      C1217   1.408       .  A
C1217      C1218   1.398   1_545  A
C1217      H1221   1.083       .  S
C1218      C1669   1.406       .  A
C1218      O1678   1.372       .  S
H1219      C1670   1.084       .  S
O1220      H1224   0.992       .  S
O1222      C1674   1.372       .  S
O1222      H1223   0.992       .  S
C1225      C1226   1.402       .  A
C1225      C1230   1.414       .  A
C1226      C1227   1.396       .  A
C1226      H1231   1.084       .  S
C1227      C1228   1.410       .  A
C1227      O1232   1.372       .  S
C1228      C1229   1.399       .  A
C1229      C1230   1.395       .  A
C1229      H1233   1.084       .  S
C1230      O1234   1.372       .  S
O1232      H1236   0.992       .  S
O1234      H1235   0.992       .  S
C1237      C1238   1.405       .  A
C1237      C1242   1.408       .  A
C1238      C1239   1.410       .  A
C1238      H1243   1.083       .  S
C1239      C1240   1.411       .  A
C1239      O1244   1.372       .  S
C1240      C1241   1.400       .  A
C1241      C1242   1.396       .  A
C1241      H1245   1.084       .  S
C1242      O1246   1.372       .  S
O1244      H1248   0.992       .  S
O1246      H1247   0.993       .  S
C1249      C1250   1.408       .  A
C1249      C1254   1.407       .  A
C1250      C1251   1.402       .  A
C1250      H1255   1.084       .  S
C1251      C1252   1.408       .  A
C1251      O1256   1.372       .  S
C1252      C1253   1.411       .  A
C1253      C1254   1.405       .  A
C1253      H1257   1.083       .  S
C1254      O1258   1.371       .  S
O1256      H1260   0.992       .  S
O1258      H1259   0.992       .  S
C1261      C1262   1.411       .  A
C1261      C1266   1.408       .  A
C1262      C1263   1.403       .  A
C1262      H1267   1.083       .  S
C1263      C1264   1.406       .  A
C1263      O1268   1.371       .  S
C1264      C1265   1.410       .  A
C1265      C1266   1.405       .  A
C1265      H1269   1.084       .  S
C1266      O1270   1.371       .  S
O1268      H1272   0.993       .  S
O1270      H1271   0.993       .  S
C1273      C1274   1.401       .  A
C1273      C1278   1.407       .  A
C1274      C1275   1.402   1_556  A
C1274      H1279   1.084       .  S
C1275      C1276   1.409       .  A
C1275      O1280   1.372       .  S
C1276      C1277   1.400       .  A
C1277      C1278   1.400   1_554  A
C1277      H1281   1.084       .  S
C1278      O1282   1.372       .  S
O1280      H1284   0.992       .  S
O1282      H1283   0.993       .  S
C1285      C1286   1.404   1_655  A
C1285      C1290   1.403       .  A
C1286      H1291   1.084       .  S
C1287      C1288   1.409       .  A
C1287      O1292   1.371       .  S
C1288      C1289   1.412       .  A
C1289      H1293   1.083       .  S
C1290      O1294   1.372       .  S
O1292      H1296   0.991       .  S
O1294      H1295   0.992       .  S
C1297      C1298   1.397       .  A
C1297      C1302   1.413       .  A
C1298      C1299   1.394       .  A
C1298      H1303   1.084       .  S
C1299      C1300   1.415       .  A
C1299      O1304   1.372       .  S
C1300      C1301   1.402       .  A
C1301      C1302   1.400       .  A
C1301      H1305   1.084       .  S
C1302      O1306   1.372       .  S
O1304      H1308   0.992       .  S
O1306      H1307   0.991       .  S
C1309      C1310   1.413       .  A
C1309      C1314   1.410       .  A
C1310      C1311   1.406       .  A
C1310      H1315   1.083       .  S
C1311      C1312   1.406       .  A
C1311      O1316   1.371       .  S
C1312      C1313   1.409       .  A
C1313      C1314   1.405       .  A
C1313      H1317   1.084       .  S
C1314      O1318   1.371       .  S
O1316      H1320   0.992       .  S
O1318      H1319   0.992       .  S
C1321      C1322   1.401       .  A
C1321      C1326   1.413       .  A
C1322      C1323   1.407       .  A
C1322      H1327   1.084       .  S
C1323      C1324   1.420       .  A
C1323      O1328   1.371       .  S
C1324      C1325   1.404       .  A
C1325      C1326   1.403       .  A
C1325      H1329   1.083       .  S
C1326      O1330   1.372       .  S
O1328      H1332   0.992       .  S
O1330      H1331   0.993       .  S
C1333      C1334   1.408       .  A
C1333      C1338   1.406       .  A
C1334      H1339   1.084       .  S
C1335      C1336   1.406       .  A
C1335      O1340   1.372       .  S
C1336      C1337   1.404   1_655  A
C1337      H1341   1.084       .  S
C1338      O1342   1.371       .  S
O1340      H1344   0.992       .  S
O1342      H1343   0.992       .  S
C1345      C1346   1.400       .  A
C1345      C1350   1.413       .  A
C1346      C1347   1.397       .  A
C1346      H1351   1.084       .  S
C1347      C1348   1.415       .  A
C1347      O1352   1.371       .  S
C1348      C1349   1.405       .  A
C1349      C1350   1.403       .  A
C1349      H1353   1.083       .  S
C1350      O1354   1.372       .  S
O1352      H1356   0.994       .  S
O1354      H1355   0.991       .  S
C1357      C1358   1.402       .  A
C1357      C1362   1.408       .  A
C1358      C1359   1.404   1_556  A
C1358      H1363   1.084       .  S
C1359      C1360   1.409       .  A
C1359      O1364   1.372       .  S
C1360      C1361   1.401       .  A
C1361      C1362   1.403   1_554  A
C1361      H1365   1.084       .  S
C1362      O1366   1.372       .  S
O1364      H1368   0.992       .  S
O1366      H1367   0.992       .  S
O1369     Ni1377   1.921       .  S
O1369      C1379   1.282       .  A
O1370     Ni1377   1.924       .  S
O1370      C1380   1.284       .  A
O1371     Ni1377   1.908       .  S
O1371      C1381   1.279       .  A
O1372     Ni1377   1.911       .  S
O1372      C1382   1.279       .  A
O1373     Ni1378   1.941       .  S
O1373      C1382   1.288       .  A
O1374     Ni1378   1.935       .  S
O1374      C1381   1.283       .  A
O1375     Ni1378   1.909       .  S
O1375      C1380   1.278       .  A
O1376     Ni1378   1.896       .  S
O1376      C1379   1.277       .  A
Ni1377    Ni1378   2.388       .  S
C1379      C1792   1.467       .  S
C1380      C1801   1.479       .  S
C1381      C1816   1.473       .  S
C1382      C1780   1.496       .  S
O1383     Ni1391   1.926       .  S
O1383      C1393   1.285       .  A
O1384     Ni1391   1.929       .  S
O1384      C1394   1.284       .  A
O1385     Ni1391   1.906       .  S
O1385      C1395   1.278       .  A
O1386     Ni1391   1.910       .  S
O1386      C1396   1.279       .  A
O1387     Ni1392   1.946       .  S
O1387      C1396   1.289       .  A
O1388     Ni1392   1.939       .  S
O1388      C1395   1.284       .  A
O1389     Ni1392   1.899       .  S
O1389      C1394   1.277       .  A
O1390     Ni1392   1.894       .  S
O1390      C1393   1.276       .  A
Ni1391    Ni1392   2.388       .  S
C1393      C1753   1.473       .  S
C1394      C1741   1.473       .  S
C1395      C1813   1.473       .  S
C1396      C1765   1.496       .  S
O1397     Ni1405   1.922       .  S
O1397      C1407   1.284       .  A
O1398     Ni1405   1.930       .  S
O1398      C1408   1.285       .  A
O1399     Ni1405   1.898       .  S
O1399      C1409   1.276       .  A
O1400     Ni1405   1.905       .  S
O1400      C1410   1.278       .  A
O1401     Ni1406   1.941       .  S
O1401      C1410   1.288       .  A
O1402     Ni1406   1.938       .  S
O1402      C1409   1.284       .  A
O1403     Ni1406   1.902       .  S
O1403      C1408   1.278       .  A
O1404     Ni1406   1.896       .  S
O1404      C1407   1.277       .  A
Ni1405    Ni1406   2.387       .  S
C1407      C1789   1.476       .  S
C1408      C1804   1.485       .  S
C1409      C1732   1.468       .  S
C1410      C1720   1.490       .  S
O1411     Ni1419   1.929       .  S
O1411      C1421   1.285       .  A
O1412     Ni1419   1.931       .  S
O1412      C1422   1.285       .  A
O1413     Ni1419   1.905       .  S
O1413      C1423   1.278       .  A
O1414     Ni1419   1.912       .  S
O1414      C1424   1.279       .  A
O1415     Ni1420   1.933       .  S
O1415      C1424   1.286       .  A
O1416     Ni1420   1.932       .  S
O1416      C1423   1.283       .  A
O1417     Ni1420   1.898       .  S
O1417      C1422   1.277       .  A
O1418     Ni1420   1.892       .  S
O1418      C1421   1.276       .  A
Ni1419    Ni1420   2.387       .  S
C1421      C1756   1.476       .  S
C1422      C1744   1.485       .  S
C1423      C1729   1.469       .  S
C1424      C1708   1.491       .  S
O1425     Ni1433   1.923       .  S
O1425      C1435   1.284       .  A
O1426     Ni1433   1.929       .  S
O1426      C1436   1.285       .  A
O1427     Ni1433   1.903       .  S
O1427      C1437   1.278       .  A
O1428     Ni1433   1.907       .  S
O1428      C1438   1.278       .  A
O1429     Ni1434   1.944       .  S
O1429      C1438   1.288       .  A
O1430     Ni1434   1.942       .  S
O1430      C1437   1.285       .  A
O1431     Ni1434   1.899       .  S
O1431      C1436   1.277       .  A
O1432     Ni1434   1.896       .  S
O1432      C1435   1.276       .  A
Ni1433    Ni1434   2.387       .  S
C1435      C1681   1.477       .  S
C1436      C1672   1.480       .  S
C1437      C1693   1.475       .  S
C1438      C1768   1.490       .  S
O1439     Ni1447   1.920       .  S
O1439      C1449   1.283       .  A
O1440     Ni1447   1.926       .  S
O1440      C1450   1.284       .  A
O1441     Ni1447   1.905       .  S
O1441      C1451   1.278       .  A
O1442     Ni1447   1.911       .  S
O1442      C1452   1.279       .  A
O1443     Ni1448   1.947       .  S
O1443      C1452   1.289       .  A
O1444     Ni1448   1.940       .  S
O1444      C1451   1.284       .  A
O1445     Ni1448   1.913       .  S
O1445      C1450   1.280       .  A
O1446     Ni1448   1.899       .  S
O1446      C1449   1.277       .  A
Ni1447    Ni1448   2.387       .  S
C1449      C1633   1.473       .  S
C1450      C1648   1.484       .  S
C1451      C1696   1.475       .  S
C1452      C1657   1.496       .  S
O1453     Ni1461   1.920       .  S
O1453      C1463   1.283       .  A
O1454     Ni1461   1.923       .  S
O1454      C1464   1.283       .  A
O1455     Ni1461   1.901       .  S
O1455      C1465   1.277       .  A
O1456     Ni1461   1.903       .  S
O1456      C1466   1.277       .  A
O1457     Ni1462   1.944       .  S
O1457      C1466   1.288       .  A
O1458     Ni1462   1.939       .  S
O1458      C1465   1.284       .  A
O1459     Ni1462   1.903       .  S
O1459      C1464   1.278       .  A
O1460     Ni1462   1.899       .  S
O1460      C1463   1.277       .  A
Ni1461    Ni1462   2.389       .  S
C1463      C1684   1.470       .  S
C1464      C1669   1.476       .  S
C1465      C1621   1.471       .  S
C1466      C1705   1.485       .  S
O1467     Ni1475   1.920       .  S
O1467      C1477   1.283       .  A
O1468     Ni1475   1.931       .  S
O1468      C1478   1.285       .  A
O1469     Ni1475   1.908       .  S
O1469      C1479   1.279       .  A
O1470     Ni1475   1.913       .  S
O1470      C1480   1.279       .  A
O1471     Ni1476   1.938       .  S
O1471      C1480   1.287       .  A
O1472     Ni1476   1.935       .  S
O1472      C1479   1.283       .  A
O1473     Ni1476   1.910       .  S
O1473      C1478   1.280       .  A
O1474     Ni1476   1.900       .  S
O1474      C1477   1.277       .  A
Ni1475    Ni1476   2.386       .  S
C1477      C1636   1.475       .  S
C1478      C1645   1.489       .  S
C1479      C1624   1.473       .  S
C1480      C1612   1.492       .  S
O1481     Ni1489   1.917       .  S
O1481      C1491   1.283       .  A
O1482     Ni1489   1.925       .  S
O1482      C1492   1.284       .  A
O1483     Ni1489   1.902       .  S
O1483      C1493   1.277       .  A
O1484     Ni1489   1.908       .  S
O1484      C1494   1.279       .  A
O1485     Ni1490   1.944       .  S
O1485      C1494   1.288       .  A
O1486     Ni1490   1.938       .  S
O1486      C1493   1.284       .  A
O1487     Ni1490   1.903       .  S
O1487      C1492   1.278       .  A
O1488     Ni1490   1.893       .  S
O1488      C1491   1.276       .  A
Ni1489    Ni1490   2.388       .  S
C1491      C1588   1.470       .  S
C1492      C1573   1.478       .  S
C1493      C1597   1.472       .  S
C1494      C1717   1.492       .  S
O1495     Ni1503   1.924       .  S
O1495      C1505   1.285       .  A
O1496     Ni1503   1.931       .  S
O1496      C1506   1.285       .  A
O1497     Ni1503   1.902       .  S
O1497      C1507   1.277       .  A
O1498     Ni1503   1.907       .  S
O1498      C1508   1.278       .  A
O1499     Ni1504   1.946       .  S
O1499      C1508   1.288       .  A
O1500     Ni1504   1.942       .  S
O1500      C1507   1.285       .  A
O1501     Ni1504   1.904       .  S
O1501      C1506   1.279       .  A
O1502     Ni1504   1.895       .  S
O1502      C1505   1.276       .  A
Ni1503    Ni1504   2.385       .  S
C1505      C1552   1.479       .  S
C1506      C1561   1.489       .  S
C1507      C1600   1.474       .  S
C1508      C1609   1.492       .  S
O1509     Ni1517   1.919       .  S
O1509      C1519   1.283       .  A
O1510     Ni1517   1.928       .  S
O1510      C1520   1.284       .  A
O1511     Ni1517   1.899       .  S
O1511      C1521   1.277       .  A
O1512     Ni1517   1.906       .  S
O1512      C1522   1.278       .  A
O1513     Ni1518   1.943       .  S
O1513      C1522   1.287       .  A
O1514     Ni1518   1.939       .  S
O1514      C1521   1.284       .  A
O1515     Ni1518   1.898       .  S
O1515      C1520   1.278       .  A
O1516     Ni1518   1.892       .  S
O1516      C1519   1.276       .  A
Ni1517    Ni1518   2.389       .  S
C1519      C1585   1.468       .  S
C1520      C1576   1.482       .  S
C1521      C1537   1.471       .  S
C1522      C1777   1.487       .  S
O1523     Ni1531   1.921       .  S
O1523      C1533   1.282       .  A
O1524     Ni1531   1.923       .  S
O1524      C1534   1.283       .  A
O1525     Ni1531   1.910       .  S
O1525      C1535   1.279       .  A
O1526     Ni1531   1.912       .  S
O1526      C1536   1.279       .  A
O1527     Ni1532   1.947       .  S
O1527      C1536   1.289       .  A
O1528     Ni1532   1.935       .  S
O1528      C1535   1.283       .  A
O1529     Ni1532   1.911       .  S
O1529      C1534   1.279       .  A
O1530     Ni1532   1.898       .  S
O1530      C1533   1.277       .  A
Ni1531    Ni1532   2.389       .  S
C1533      C1549   1.465       .  S
C1534      C1564   1.476       .  S
C1535      C1540   1.474       .  S
C1536      C1660   1.497       .  S
C1537      C1538   1.401       .  A
C1537      C1542   1.409       .  A
C1538      C1539   1.405       .  A
C1538      H1543   1.084       .  S
C1539      C1540   1.409       .  A
C1539      O1544   1.371       .  S
C1540      C1541   1.402       .  A
C1541      C1542   1.399       .  A
C1541      H1545   1.084       .  S
C1542      O1546   1.373       .  S
O1544      H1548   0.992       .  S
O1546      H1547   0.992       .  S
C1549      C1550   1.398       .  A
C1549      C1554   1.407       .  A
C1550      C1551   1.397       .  A
C1550      H1555   1.084       .  S
C1553      C1554   1.396       .  A
C1554      O1558   1.372       .  S
O1558      H1559   0.992       .  S
C1561      C1562   1.410       .  A
C1561      C1566   1.412       .  A
C1562      H1567   1.083       .  S
C1563      C1564   1.403       .  A
C1563      O1568   1.372       .  S
C1564      C1565   1.406   1_655  A
C1565      H1569   1.084       .  S
C1566      O1570   1.371       .  S
O1568      H1572   0.992       .  S
O1570      H1571   0.992       .  S
C1574      C1575   1.400       .  A
C1575      C1576   1.409       .  A
C1575      O1580   1.372       .  S
C1576      C1577   1.409       .  A
C1577      C1578   1.397       .  A
C1577      H1581   1.083       .  S
O1580      H1584   0.991       .  S
O1582      H1583   0.992       .  S
C1585      C1586   1.399       .  A
C1585      C1590   1.412   1_655  A
C1586      H1591   1.084       .  S
C1587      C1588   1.412       .  A
C1587      O1592   1.372       .  S
C1588      C1589   1.400       .  A
C1589      H1593   1.084       .  S
C1590      O1594   1.373       .  S
O1592      H1596   0.992       .  S
O1594      H1595   0.991       .  S
C1597      C1598   1.403       .  A
C1597      C1602   1.406       .  A
C1598      C1599   1.400       .  A
C1598      H1603   1.084       .  S
C1599      C1600   1.406       .  A
C1599      O1604   1.372       .  S
C1600      C1601   1.406       .  A
C1601      C1602   1.407       .  A
C1601      H1605   1.084       .  S
C1602      O1606   1.372       .  S
O1604      H1608   0.992       .  S
O1606      H1607   0.993       .  S
C1609      C1610   1.410       .  A
C1609      C1614   1.408       .  A
C1610      C1611   1.403       .  A
C1610      H1615   1.083       .  S
C1611      C1612   1.408       .  A
C1611      O1616   1.371       .  S
C1612      C1613   1.412       .  A
C1613      C1614   1.408       .  A
C1613      H1617   1.083       .  S
C1614      O1618   1.371       .  S
O1616      H1620   0.991       .  S
O1618      H1619   0.992       .  S
C1621      C1622   1.406       .  A
C1621      C1626   1.406       .  A
C1622      C1623   1.407       .  A
C1622      H1627   1.084       .  S
C1623      C1624   1.406       .  A
C1623      O1628   1.371       .  S
C1624      C1625   1.403       .  A
C1625      C1626   1.399       .  A
C1625      H1629   1.084       .  S
C1626      O1630   1.372       .  S
O1628      H1632   0.992       .  S
O1630      H1631   0.993       .  S
C1633      C1634   1.401       .  A
C1633      C1638   1.411       .  A
C1634      C1635   1.398       .  A
C1634      H1639   1.084       .  S
C1637      C1638   1.396       .  A
C1638      O1642   1.372       .  S
O1642      H1643   0.992       .  S
C1645      C1646   1.409       .  A
C1645      C1650   1.411       .  A
C1646      C1647   1.401       .  A
C1646      H1651   1.083       .  S
C1647      C1648   1.407       .  A
C1647      O1652   1.372       .  S
C1648      C1649   1.408       .  A
C1649      C1650   1.404       .  A
C1649      H1653   1.084       .  S
C1650      O1654   1.371       .  S
O1652      H1656   0.991       .  S
O1654      H1655   0.992       .  S
C1657      C1658   1.402       .  A
C1657      C1662   1.417       .  A
C1658      C1659   1.407       .  A
C1658      H1663   1.083       .  S
C1659      C1660   1.418       .  A
C1659      O1664   1.372       .  S
C1660      C1661   1.403       .  A
C1661      C1662   1.407       .  A
C1661      H1665   1.083       .  S
C1662      O1666   1.372       .  S
O1664      H1668   0.992       .  S
O1666      H1667   0.992       .  S
C1670      C1671   1.399       .  A
C1671      C1672   1.408       .  A
C1671      O1676   1.371       .  S
C1672      C1673   1.408       .  A
C1673      C1674   1.398       .  A
C1673      H1677   1.084       .  S
O1676      H1680   0.992       .  S
O1678      H1679   0.992       .  S
C1681      C1682   1.403       .  A
C1681      C1686   1.415       .  A
C1682      C1683   1.397       .  A
C1682      H1687   1.083       .  S
C1683      C1684   1.410       .  A
C1683      O1688   1.372       .  S
C1684      C1685   1.398       .  A
C1685      C1686   1.395       .  A
C1685      H1689   1.084       .  S
C1686      O1690   1.372       .  S
O1688      H1692   0.992       .  S
O1690      H1691   0.992       .  S
C1693      C1694   1.404       .  A
C1693      C1698   1.408       .  A
C1694      C1695   1.409       .  A
C1694      H1699   1.083       .  S
C1695      C1696   1.411       .  A
C1695      O1700   1.372       .  S
C1696      C1697   1.401       .  A
C1697      C1698   1.397       .  A
C1697      H1701   1.084       .  S
C1698      O1702   1.372       .  S
O1700      H1704   0.992       .  S
O1702      H1703   0.993       .  S
C1705      C1706   1.407       .  A
C1705      C1710   1.406       .  A
C1706      C1707   1.402       .  A
C1706      H1711   1.084       .  S
C1707      C1708   1.409       .  A
C1707      O1712   1.372       .  S
C1708      C1709   1.411       .  A
C1709      C1710   1.405       .  A
C1709      H1713   1.083       .  S
C1710      O1714   1.371       .  S
O1712      H1716   0.993       .  S
O1714      H1715   0.992       .  S
C1717      C1718   1.411       .  A
C1717      C1722   1.408       .  A
C1718      C1719   1.404       .  A
C1718      H1723   1.083       .  S
C1719      C1720   1.407       .  A
C1719      O1724   1.371       .  S
C1720      C1721   1.411       .  A
C1721      C1722   1.405       .  A
C1721      H1725   1.084       .  S
C1722      O1726   1.371       .  S
O1724      H1728   0.993       .  S
O1726      H1727   0.993       .  S
C1729      C1730   1.401       .  A
C1729      C1734   1.408       .  A
C1730      C1731   1.402   1_556  A
C1730      H1735   1.084       .  S
C1731      C1732   1.409       .  A
C1731      O1736   1.372       .  S
C1732      C1733   1.401       .  A
C1733      C1734   1.401   1_554  A
C1733      H1737   1.084       .  S
C1734      O1738   1.372       .  S
O1736      H1740   0.992       .  S
O1738      H1739   0.993       .  S
C1741      C1742   1.405   1_655  A
C1741      C1746   1.403       .  A
C1742      H1747   1.084       .  S
C1743      C1744   1.409       .  A
C1743      O1748   1.371       .  S
C1744      C1745   1.412       .  A
C1745      H1749   1.083       .  S
C1746      O1750   1.372       .  S
O1748      H1752   0.991       .  S
O1750      H1751   0.992       .  S
C1753      C1754   1.398       .  A
C1753      C1758   1.413       .  A
C1754      C1755   1.395       .  A
C1754      H1759   1.084       .  S
C1755      C1756   1.414       .  A
C1755      O1760   1.372       .  S
C1756      C1757   1.401       .  A
C1757      C1758   1.399       .  A
C1757      H1761   1.084       .  S
C1758      O1762   1.372       .  S
O1760      H1764   0.992       .  S
O1762      H1763   0.991       .  S
C1765      C1766   1.412       .  A
C1765      C1770   1.409       .  A
C1766      C1767   1.406       .  A
C1766      H1771   1.083       .  S
C1767      C1768   1.406       .  A
C1767      O1772   1.371       .  S
C1768      C1769   1.409       .  A
C1769      C1770   1.405       .  A
C1769      H1773   1.084       .  S
C1770      O1774   1.371       .  S
O1772      H1776   0.991       .  S
O1774      H1775   0.992       .  S
C1777      C1778   1.401       .  A
C1777      C1782   1.414       .  A
C1778      C1779   1.407       .  A
C1778      H1783   1.084       .  S
C1779      C1780   1.419       .  A
C1779      O1784   1.371       .  S
C1780      C1781   1.404       .  A
C1781      C1782   1.402       .  A
C1781      H1785   1.083       .  S
C1782      O1786   1.372       .  S
O1784      H1788   0.992       .  S
O1786      H1787   0.992       .  S
C1789      C1790   1.409       .  A
C1789      C1794   1.407       .  A
C1790      H1795   1.084       .  S
C1791      C1792   1.404       .  A
C1791      O1796   1.372       .  S
C1792      C1793   1.403   1_655  A
C1793      H1797   1.084       .  S
C1794      O1798   1.371       .  S
O1796      H1800   0.992       .  S
O1798      H1799   0.992       .  S
C1801      C1802   1.399       .  A
C1801      C1806   1.413       .  A
C1802      C1803   1.397       .  A
C1802      H1807   1.084       .  S
C1803      C1804   1.415       .  A
C1803      O1808   1.371       .  S
C1804      C1805   1.404       .  A
C1805      C1806   1.403       .  A
C1805      H1809   1.083       .  S
C1806      O1810   1.372       .  S
O1808      H1812   0.994       .  S
O1810      H1811   0.991       .  S
C1813      C1814   1.403       .  A
C1813      C1818   1.408       .  A
C1814      C1815   1.404   1_556  A
C1814      H1819   1.084       .  S
C1815      C1816   1.409       .  A
C1815      O1820   1.372       .  S
C1816      C1817   1.401       .  A
C1817      C1818   1.403   1_554  A
C1817      H1821   1.084       .  S
C1818      O1822   1.372       .  S
O1820      H1824   0.992       .  S
O1822      H1823   0.992       .  S
