geometry optimzed in LAMMPS
_audit_creation_date              2020-12-01 
_audit_creation_method            'lammps2cif' 
_symmetry_space_group_name_H-M    'P1' 
_symmetry_Int_Tables_number       1 
_symmetry_cell_setting            triclinic 
loop_ 
_symmetry_equiv_pos_as_xyz 
  x,y,z 
_cell_length_a                    67.64031603 
_cell_length_b                    67.52404990191849 
_cell_length_c                    67.50047531540339 
_cell_angle_alpha                 90.10415041121371 
_cell_angle_beta                  89.99876128245778 
_cell_angle_gamma                 90.01184073726363 
loop_ 
_atom_site_label 
_atom_site_type_symbol 
_atom_site_fract_x 
_atom_site_fract_y 
_atom_site_fract_z 
_atom_site_charge 
O1          O  0.04100768  0.46539779  0.88466714    -0.73900
O2          O  0.02639175  0.49819200  0.84036330    -0.73900
O3          O  0.00806230  0.48535105  0.87420316    -0.74000
O4          O  0.05913165  0.47826777  0.85179893    -0.74000
O5          O  0.04896652  0.45080044  0.83640427    -0.74000
O6          O  0.99662460  0.45964094  0.85680309    -0.73900
O7          O  0.01704136  0.47112903  0.82382219    -0.73900
O8          O  0.02868714  0.43902994  0.86894632    -0.74000
Ni9        Ni  0.03393266  0.48282212  0.86329702     1.25400
Ni10       Ni  0.02236442  0.45422469  0.84588044     1.25400
C11         C  0.03724588  0.44679577  0.88397202     0.88300
C12         C  0.02017599  0.48980245  0.82444761     0.88200
C13         C  0.99408062  0.47348444  0.86958351     0.88200
C14         C  0.06264413  0.46312841  0.84098117     0.88400
O15         O  0.06116519  0.39346457  0.03945688    -0.73900
O16         O  0.03633432  0.34331546  0.02851394    -0.73900
O17         O  0.04988992  0.36200488  0.06153013    -0.74000
O18         O  0.04736486  0.37507252  0.00664850    -0.74000
O19         O  0.07761737  0.36264599  0.00208582    -0.74000
O20         O  0.07895585  0.34706977  0.05679041    -0.73900
O21         O  0.06598319  0.32986213  0.02312066    -0.73900
O22         O  0.09073546  0.37919126  0.03611641    -0.74000
Ni23       Ni  0.04760436  0.36891059  0.03418541     1.25400
Ni24       Ni  0.07936071  0.35415767  0.02928715     1.25400
C25         C  0.08009828  0.39444080  0.03976827     0.88300
C26         C  0.04714879  0.32828823  0.02428423     0.88200
C27         C  0.06481409  0.35247557  0.06819859     0.88200
C28         C  0.06227899  0.37166501  0.99553730     0.88400
O29         O  0.87566109  0.49322647  0.95765705    -0.73900
O30         O  0.82622580  0.50522335  0.98296734    -0.73900
O31         O  0.84379039  0.47190536  0.96914688    -0.74000
O32         O  0.85854919  0.52643021  0.97156151    -0.74000
O33         O  0.84591156  0.53122606  0.94138743    -0.74000
O34         O  0.82883287  0.47702091  0.94012040    -0.73900
O35         O  0.81262028  0.51098505  0.95342055    -0.73900
O36         O  0.86131436  0.49687376  0.92810311    -0.74000
Ni37       Ni  0.85148075  0.49906094  0.97142857     1.25400
Ni38       Ni  0.83660140  0.50430618  0.93973720     1.25400
C39         C  0.87649769  0.49293087  0.93868479     0.88300
C40         C  0.81117671  0.50959943  0.97229363     0.88200
C41         C  0.83401990  0.46548041  0.95422257     0.88200
C42         C  0.85565871  0.53743897  0.95645394     0.88400
O43         O  0.12945936  0.56173387  0.06505476    -0.73900
O44         O  0.17327529  0.54926370  0.03044006    -0.73900
O45         O  0.14003976  0.52976045  0.04343723    -0.74000
O46         O  0.16170469  0.58113030  0.05188317    -0.74000
O47         O  0.17835432  0.57015201  0.07821266    -0.74000
O48         O  0.15789520  0.51781373  0.06852183    -0.73900
O49         O  0.19029665  0.53864406  0.05665560    -0.73900
O50         O  0.14637141  0.54921900  0.09050476    -0.74000
Ni51       Ni  0.15054481  0.55580464  0.04670954     1.25400
Ni52       Ni  0.16885917  0.54350659  0.07435437     1.25400
C53         C  0.13081781  0.55739813  0.08350851     0.88300
C54         C  0.18929937  0.54254945  0.03816339     0.88200
C55         C  0.14493345  0.51548468  0.05485123     0.88200
C56         C  0.17322084  0.58423547  0.06656912     0.88400
O57         O  0.97805602  0.57661964  0.14265180    -0.73900
O58         O  0.98962186  0.55294241  0.19290170    -0.73900
O59         O  0.95635504  0.56530360  0.17439993    -0.74000
O60         O  0.01108144  0.56396564  0.16083769    -0.74000
O61         O  0.01477315  0.59470320  0.17253377    -0.74000
O62         O  0.96040475  0.59468473  0.18907988    -0.73900
O63         O  0.99450023  0.58299631  0.20585105    -0.73900
O64         O  0.98028078  0.60662829  0.15642300    -0.74000
Ni65       Ni  0.98364758  0.56361028  0.16728118     1.25400
Ni66       Ni  0.98771698  0.59581682  0.18150897     1.25400
C67         C  0.97723495  0.59554017  0.14135371     0.88300
C68         C  0.99360411  0.56415504  0.20770246     0.88200
C69         C  0.94940621  0.58007125  0.18402812     0.88200
C70         C  0.02161604  0.57944110  0.16349753     0.88400
O71         O  0.95764342  0.64296077  0.97341487    -0.73900
O72         O  0.99161798  0.68658623  0.98792419    -0.73900
O73         O  0.97654287  0.65426238  0.00688573    -0.74000
O74         O  0.97287295  0.67455424  0.95430172    -0.74000
O75         O  0.94610511  0.69183066  0.96300460    -0.74000
O76         O  0.95081370  0.67267557  0.01637763    -0.73900
O77         O  0.96494642  0.70428332  0.99600899    -0.73900
O78         O  0.93154860  0.66052703  0.98347897    -0.74000
Ni79       Ni  0.97567512  0.66399145  0.98036620     1.25400
Ni80       Ni  0.94744084  0.68298294  0.99003772     1.25400
C81         C  0.93895857  0.64466274  0.97626235     0.88300
C82         C  0.98366816  0.70277854  0.99399223     0.88200
C83         C  0.96421893  0.65980789  0.02014886     0.88200
C84         C  0.95865233  0.68619125  0.94989387     0.88400
O85         O  0.88303429  0.55924585  0.56447382    -0.73900
O86         O  0.83594672  0.54488152  0.53585522    -0.73900
O87         O  0.85016349  0.57871933  0.55238506    -0.74000
O88         O  0.86946875  0.52591157  0.54781107    -0.74000
O89         O  0.85454894  0.51754205  0.57608530    -0.74000
O90         O  0.83512957  0.57108329  0.58079004    -0.73900
O91         O  0.82124872  0.53720153  0.56442121    -0.73900
O92         O  0.86791560  0.55163233  0.59285666    -0.74000
Ni93       Ni  0.86009008  0.55244403  0.54907521     1.25400
Ni94       Ni  0.84413245  0.54402743  0.57952683     1.25400
C95         C  0.88314325  0.55768054  0.58340703     0.88300
C96         C  0.82074575  0.53897773  0.54556496     0.88200
C97         C  0.83983057  0.58374696  0.56744781     0.88200
C98         C  0.86589334  0.51330178  0.56142816     0.88400
O99         O  0.95858015  0.39783760  0.54701167    -0.73900
O100        O  0.98781825  0.35013541  0.53559598    -0.73900
O101        O  0.97667297  0.38311554  0.51498461    -0.74000
O102        O  0.96977242  0.36581754  0.56808168    -0.74000
O103        O  0.94207180  0.35000369  0.55947140    -0.74000
O104        O  0.94850880  0.36836210  0.50597371    -0.73900
O105        O  0.95966472  0.33547836  0.52655680    -0.73900
O106        O  0.93051515  0.38234290  0.53906544    -0.74000
Ni107      Ni  0.97427911  0.37466090  0.54168903     1.25400
Ni108      Ni  0.94423758  0.35843467  0.53239828     1.25400
C109        C  0.93971897  0.39782052  0.54494542     0.88300
C110        C  0.97835327  0.33483363  0.52941888     0.88200
C111        C  0.96330101  0.37959063  0.50210518     0.88200
C112        C  0.95464283  0.35545802  0.57261665     0.88400
O113        O  0.96933880  0.47747799  0.39062619    -0.73900
O114        O  0.98064518  0.50830212  0.34414330    -0.73900
O115        O  0.94854077  0.48891326  0.35850771    -0.74000
O116        O  0.00099033  0.49696608  0.37706879    -0.74000
O117        O  0.01110039  0.46955053  0.36153875    -0.74000
O118        O  0.95807609  0.46171609  0.34226629    -0.73900
O119        O  0.99060947  0.48075316  0.32880530    -0.73900
O120        O  0.97848494  0.45007716  0.37446920    -0.74000
Ni121      Ni  0.97454816  0.49394924  0.36806110     1.25400
Ni122      Ni  0.98495997  0.46458425  0.35114482     1.25400
C123        C  0.97210292  0.45869739  0.39006559     0.88300
C124        C  0.98738588  0.49940561  0.32875276     0.88200
C125        C  0.94453931  0.47383468  0.34776206     0.88200
C126        C  0.01442391  0.48426448  0.37312025     0.88400
O127        O  0.13095161  0.49589570  0.46276586    -0.73900
O128        O  0.17744698  0.50487751  0.49430602    -0.73900
O129        O  0.14616405  0.52714383  0.48180185    -0.74000
O130        O  0.16137307  0.47327180  0.47517143    -0.74000
O131        O  0.17869444  0.48133569  0.44821228    -0.74000
O132        O  0.16267399  0.53577911  0.45451577    -0.73900
O133        O  0.19397786  0.51324116  0.46696765    -0.73900
O134        O  0.14791690  0.50352125  0.43545415    -0.74000
Ni135      Ni  0.15348385  0.50004679  0.47953020     1.25400
Ni136      Ni  0.17147962  0.50882041  0.45034408     1.25400
C137        C  0.13185126  0.49822275  0.44395212     0.88300
C138        C  0.19349463  0.51019253  0.48566884     0.88200
C139        C  0.15101795  0.54008424  0.46889896     0.88200
C140        C  0.17222818  0.46836220  0.46047525     0.88400
O141        O  0.04204003  0.57923239  0.64241324    -0.73900
O142        O  0.02863658  0.54898148  0.68874310    -0.73900
O143        O  0.00927193  0.56174350  0.65567432    -0.74000
O144        O  0.06191301  0.56629933  0.67457192    -0.74000
O145        O  0.05422202  0.59398792  0.69094596    -0.74000
O146        O  0.00071798  0.58960477  0.67133062    -0.73900
O147        O  0.02052083  0.57689032  0.70449458    -0.73900
O148        O  0.03457936  0.60710310  0.65860450    -0.74000
Ni149      Ni  0.03571390  0.56303366  0.66490796     1.25400
Ni150      Ni  0.02714551  0.59286503  0.68199796     1.25400
C151        C  0.04037546  0.59814628  0.64293218     0.88300
C152        C  0.02272016  0.55806875  0.70438438     0.88200
C153        C  0.99667529  0.57529707  0.65941987     0.88200
C154        C  0.06693857  0.58102368  0.68536381     0.88400
O155        O  0.06120139  0.65715032  0.48277336    -0.73900
O156        O  0.03079767  0.70325288  0.49638744    -0.73900
O157        O  0.04882587  0.68971194  0.46318583    -0.74000
O158        O  0.04306393  0.66999640  0.51552554    -0.74000
O159        O  0.07067028  0.68550556  0.52493264    -0.74000
O160        O  0.07642026  0.70571353  0.47177422    -0.73900
O161        O  0.05860146  0.71877738  0.50512152    -0.73900
O162        O  0.08898128  0.67289975  0.49120931    -0.74000
Ni163      Ni  0.04496916  0.67956102  0.48917697     1.25400
Ni164      Ni  0.07465060  0.69633041  0.49865800     1.25400
C165        C  0.08003769  0.65742175  0.48489417     0.88300
C166        C  0.03985674  0.71877473  0.50256168     0.88200
C167        C  0.06356183  0.70066421  0.45873535     0.88200
C168        C  0.05615466  0.67379814  0.52860571     0.88400
O169        O  0.53454993  0.57290425  0.88101267    -0.73900
O170        O  0.52730577  0.54266199  0.83316641    -0.73900
O171        O  0.55796562  0.56225170  0.85024211    -0.74000
O172        O  0.50432523  0.55305275  0.86482783    -0.74000
O173        O  0.49486135  0.58058330  0.84924482    -0.74000
O174        O  0.54918823  0.58948896  0.83377261    -0.73900
O175        O  0.51815788  0.57029232  0.81755887    -0.73900
O176        O  0.52617761  0.60036656  0.86465480    -0.74000
Ni177      Ni  0.53132606  0.55668405  0.85779357     1.25400
Ni178      Ni  0.52169462  0.58611390  0.84068052     1.25400
C179        C  0.53154248  0.59165560  0.88054293     0.88300
C180        C  0.52200752  0.55177741  0.81735379     0.88200
C181        C  0.56251729  0.57741812  0.83987603     0.88200
C182        C  0.49098466  0.56568378  0.86042510     0.88400
O183        O  0.37452861  0.55633470  0.95300208    -0.73900
O184        O  0.32624968  0.54621447  0.98161727    -0.73900
O185        O  0.35838386  0.52451685  0.97021246    -0.74000
O186        O  0.34303936  0.57851637  0.96464794    -0.74000
O187        O  0.32735442  0.57157123  0.93638821    -0.74000
O188        O  0.34337250  0.51702961  0.94170541    -0.73900
O189        O  0.31113531  0.53909227  0.95310351    -0.73900
O190        O  0.35889271  0.54983367  0.92460409    -0.74000
Ni191      Ni  0.35100410  0.55165230  0.96842098     1.25400
Ni192      Ni  0.33458776  0.54404652  0.93797599     1.25400
C193        C  0.37458491  0.55455789  0.93406832     0.88300
C194        C  0.31063403  0.54139078  0.97191373     0.88200
C195        C  0.35429576  0.51215993  0.95647104     0.88200
C196        C  0.33287557  0.58401405  0.94966033     0.88400
O197        O  0.44362464  0.39655712  0.97560508    -0.73900
O198        O  0.47542242  0.35130574  0.98866723    -0.73900
O199        O  0.45609705  0.36405185  0.95609089    -0.74000
O200        O  0.46304247  0.38445056  0.00809203    -0.74000
O201        O  0.43634362  0.36811674  0.01859072    -0.74000
O202        O  0.42891911  0.34789135  0.96560994    -0.73900
O203        O  0.44827101  0.33511710  0.99816136    -0.73900
O204        O  0.41664382  0.38048359  0.98576563    -0.74000
Ni205      Ni  0.46052763  0.37460235  0.98182319     1.25400
Ni206      Ni  0.43158280  0.35728688  0.99246287     1.25400
C207        C  0.42491611  0.39592878  0.97853305     0.88300
C208        C  0.46692035  0.33555967  0.99499355     0.88200
C209        C  0.44135383  0.35290225  0.95216685     0.88200
C210        C  0.45066528  0.38021208  0.02172588     0.88400
O211        O  0.47293080  0.46952207  0.13953648    -0.73900
O212        O  0.48552006  0.49501768  0.18904072    -0.73900
O213        O  0.50613796  0.48457786  0.15612060    -0.74000
O214        O  0.45206393  0.48043852  0.17222709    -0.74000
O215        O  0.45844870  0.45169959  0.18716853    -0.74000
O216        O  0.51213188  0.45428371  0.16781062    -0.73900
O217        O  0.49289489  0.46554755  0.20196899    -0.73900
O218        O  0.47735563  0.44004149  0.15375589    -0.74000
Ni219      Ni  0.47895456  0.48344874  0.16376725     1.25400
Ni220      Ni  0.48551394  0.45185566  0.17818949     1.25400
C221        C  0.47284696  0.45053085  0.13867708     0.88300
C222        C  0.49104675  0.48434282  0.20373206     0.88200
C223        C  0.51782421  0.46992082  0.15860587     0.88200
C224        C  0.44636807  0.46559281  0.18251478     0.88400
O225        O  0.55261384  0.65027803  0.03904984    -0.73900
O226        O  0.52110078  0.69659925  0.02926776    -0.73900
O227        O  0.53220426  0.66416067  0.00810737    -0.74000
O228        O  0.54133698  0.68194014  0.06063182    -0.74000
O229        O  0.56802030  0.69870951  0.05076517    -0.74000
O230        O  0.55917481  0.67999929  0.99748963    -0.73900
O231        O  0.54806386  0.71248014  0.01877263    -0.73900
O232        O  0.57958937  0.66680044  0.02957202    -0.74000
Ni233      Ni  0.53581320  0.67276865  0.03459350     1.25400
Ni234      Ni  0.56465021  0.69014848  0.02372439     1.25400
C235        C  0.57130545  0.65103660  0.03600419     0.88300
C236        C  0.52953673  0.71223069  0.02257581     0.88200
C237        C  0.54448827  0.66834748  0.99440195     0.88200
C238        C  0.55630432  0.69279207  0.06449425     0.88400
O239        O  0.62873224  0.48899136  0.06239003    -0.73900
O240        O  0.67420816  0.50159807  0.02990934    -0.73900
O241        O  0.66152458  0.46962600  0.05047839    -0.74000
O242        O  0.64047492  0.52100016  0.04138718    -0.74000
O243        O  0.65704867  0.53317874  0.06726992    -0.74000
O244        O  0.67678195  0.48053902  0.07770865    -0.73900
O245        O  0.68993199  0.51209390  0.05700404    -0.73900
O246        O  0.64430553  0.50181453  0.08858002    -0.74000
Ni247      Ni  0.65070987  0.49498659  0.04502838     1.25400
Ni248      Ni  0.66761940  0.50734515  0.07356284     1.25400
C249        C  0.62913242  0.49353267  0.08087177     0.88300
C250        C  0.68985387  0.50823571  0.03845366     0.88200
C251        C  0.67225281  0.46646441  0.06569138     0.88200
C252        C  0.64472348  0.53536540  0.05299114     0.88400
O253        O  0.45786660  0.64607188  0.55131040    -0.73900
O254        O  0.48895614  0.69141963  0.53651417    -0.73900
O255        O  0.47057447  0.67913042  0.57014866    -0.74000
O256        O  0.47616137  0.65755858  0.51807401    -0.74000
O257        O  0.44889644  0.67333659  0.50823239    -0.74000
O258        O  0.44325626  0.69507256  0.56073758    -0.73900
O259        O  0.46144017  0.70698583  0.52708540    -0.73900
O260        O  0.43048665  0.66203698  0.54208261    -0.74000
Ni261      Ni  0.47443236  0.66807739  0.54430425     1.25400
Ni262      Ni  0.44509328  0.68497207  0.53413351     1.25400
C263        C  0.43905348  0.64666658  0.54904640     0.88300
C264        C  0.48016646  0.70683231  0.52972692     0.88200
C265        C  0.45578917  0.69024847  0.57415207     0.88200
C266        C  0.46305014  0.66111659  0.50490322     0.88400
O267        O  0.47370923  0.56520886  0.39032034    -0.73900
O268        O  0.48659070  0.53693337  0.34230934    -0.73900
O269        O  0.50649883  0.54845651  0.37568578    -0.74000
O270        O  0.45343188  0.55356242  0.35770388    -0.74000
O271        O  0.46108915  0.58185214  0.34245136    -0.74000
O272        O  0.51456250  0.57703456  0.36117370    -0.73900
O273        O  0.49453039  0.56557574  0.32794200    -0.73900
O274        O  0.48080027  0.59371957  0.37522102    -0.74000
Ni275      Ni  0.47982102  0.54996850  0.36694177     1.25400
Ni276      Ni  0.48808993  0.58052959  0.35113106     1.25400
C277        C  0.47515835  0.58415789  0.39056293     0.88300
C278        C  0.49227138  0.54677663  0.32707540     0.88200
C279        C  0.51896016  0.56223310  0.37220176     0.88200
C280        C  0.44843714  0.56863206  0.34741874     0.88400
O281        O  0.63768297  0.54817499  0.45884156    -0.73900
O282        O  0.68565486  0.53808157  0.48753479    -0.73900
O283        O  0.66947174  0.56996036  0.46905043    -0.74000
O284        O  0.65302749  0.51664413  0.47735698    -0.74000
O285        O  0.66780225  0.50712526  0.44935327    -0.74000
O286        O  0.68480799  0.56111301  0.44112808    -0.73900
O287        O  0.70039003  0.52901485  0.45936699    -0.73900
O288        O  0.65279868  0.53949707  0.43073453    -0.74000
Ni289      Ni  0.66103443  0.54348973  0.47424188     1.25400
Ni290      Ni  0.67703885  0.53379172  0.44416826     1.25400
C291        C  0.63748188  0.54562108  0.44003394     0.88300
C292        C  0.70101613  0.53223511  0.47804001     0.88200
C293        C  0.67939018  0.57444560  0.45357657     0.88200
C294        C  0.65692027  0.50331927  0.46447437     0.88400
O295        O  0.56883963  0.38534211  0.48529048    -0.73900
O296        O  0.54110319  0.33700336  0.49641745    -0.73900
O297        O  0.55488603  0.36774383  0.51815265    -0.74000
O298        O  0.55475522  0.35496878  0.46312897    -0.74000
O299        O  0.58299055  0.33825520  0.46667857    -0.74000
O300        O  0.58434867  0.35327641  0.52173606    -0.73900
O301        O  0.56988081  0.32145050  0.50070079    -0.73900
O302        O  0.59759446  0.36928889  0.48746919    -0.74000
Ni303      Ni  0.55385663  0.36174642  0.49062234     1.25400
Ni304      Ni  0.58471586  0.34491756  0.49433929     1.25400
C305        C  0.58778668  0.38521715  0.48450551     0.88300
C306        C  0.55094489  0.32125359  0.50031291     0.88200
C307        C  0.56992918  0.36346412  0.52873281     0.88200
C308        C  0.56887120  0.34470862  0.45578184     0.88400
O309        O  0.54781782  0.46518264  0.63346638    -0.73900
O310        O  0.53370034  0.49760673  0.67853769    -0.73900
O311        O  0.56675497  0.47907766  0.66588427    -0.74000
O312        O  0.51457461  0.48426876  0.64535251    -0.74000
O313        O  0.50452430  0.45799575  0.66262065    -0.74000
O314        O  0.55808816  0.45148015  0.68179253    -0.73900
O315        O  0.52535235  0.47018910  0.69494345    -0.73900
O316        O  0.53720304  0.43855163  0.64985901    -0.74000
Ni317      Ni  0.54095734  0.48253581  0.65521939     1.25400
Ni318      Ni  0.53092121  0.45360561  0.67289248     1.25400
C319        C  0.54477828  0.44643163  0.63444171     0.88300
C320        C  0.52792403  0.48890511  0.69443491     0.88200
C321        C  0.57116403  0.46442667  0.67698787     0.88200
C322        C  0.50100629  0.47204505  0.65031482     0.88400
O323        O  0.37812669  0.49016954  0.56981577    -0.73900
O324        O  0.33029192  0.50303175  0.54200805    -0.73900
O325        O  0.36349740  0.52296083  0.55347335    -0.74000
O326        O  0.34565253  0.46994180  0.55827736    -0.74000
O327        O  0.33069487  0.47710916  0.58688414    -0.74000
O328        O  0.34905212  0.53096213  0.58213635    -0.73900
O329        O  0.31566082  0.51049611  0.57068046    -0.73900
O330        O  0.36341246  0.49713084  0.59859378    -0.74000
Ni331      Ni  0.35479203  0.49630689  0.55485492     1.25400
Ni332      Ni  0.33910112  0.50429522  0.58558837     1.25400
C333        C  0.37864001  0.49157914  0.58874120     0.88300
C334        C  0.31493411  0.50833281  0.55183213     0.88200
C335        C  0.36024044  0.53532517  0.56740549     0.88200
C336        C  0.33560465  0.46465788  0.57339678     0.88400
O337        O  0.56366484  0.89137923  0.54118643    -0.73900
O338        O  0.53572100  0.84353468  0.52795276    -0.73900
O339        O  0.54891086  0.86042758  0.56199144    -0.74000
O340        O  0.55017165  0.87506301  0.50747878    -0.74000
O341        O  0.57945640  0.86023548  0.50384662    -0.74000
O342        O  0.57714636  0.84370481  0.55840333    -0.73900
O343        O  0.56456438  0.82805143  0.52375890    -0.73900
O344        O  0.59229756  0.87514004  0.53867301    -0.74000
Ni345      Ni  0.54855862  0.86808958  0.53476272     1.25400
Ni346      Ni  0.57936269  0.85114318  0.53097673     1.25400
C347        C  0.58260580  0.89106589  0.54200579     0.88300
C348        C  0.54565067  0.82782451  0.52400294     0.88200
C349        C  0.56281388  0.84984024  0.56923244     0.88200
C350        C  0.56536127  0.87095391  0.49701618     0.88400
O351        O  0.54610684  0.97135638  0.39083647    -0.73900
O352        O  0.53336885  0.00474017  0.34621137    -0.73900
O353        O  0.51377563  0.99181767  0.37923907    -0.74000
O354        O  0.56567835  0.98438285  0.35883996    -0.74000
O355        O  0.55569145  0.95762300  0.34215194    -0.74000
O356        O  0.50286324  0.96587707  0.36186315    -0.73900
O357        O  0.52353683  0.97800706  0.32945120    -0.73900
O358        O  0.53497184  0.94513507  0.37404199    -0.74000
Ni359      Ni  0.54002285  0.98908798  0.36931703     1.25400
Ni360      Ni  0.52884330  0.96076125  0.35123003     1.25400
C361        C  0.54279104  0.95267640  0.38957384     0.88300
C362        C  0.52672461  0.99667010  0.33029379     0.88200
C363        C  0.49992429  0.97986203  0.37440709     0.88200
C364        C  0.56942386  0.96946370  0.34779844     0.88400
O365        O  0.45107037  0.14575183  0.47506264    -0.73900
O366        O  0.48617891  0.18809604  0.48999802    -0.73900
O367        O  0.47231442  0.15461385  0.50796006    -0.74000
O368        O  0.46487703  0.17859042  0.45723926    -0.74000
O369        O  0.43867465  0.19505958  0.46876912    -0.74000
O370        O  0.44751783  0.17258147  0.52032958    -0.73900
O371        O  0.46030295  0.20544776  0.50092171    -0.73900
O372        O  0.42572665  0.16237408  0.48818959    -0.74000
Ni373      Ni  0.46957306  0.16617820  0.48220520     1.25400
Ni374      Ni  0.44216710  0.18449695  0.49501297     1.25400
C375        C  0.43262442  0.14716108  0.47920805     0.88300
C376        C  0.47884352  0.20398269  0.49743191     0.88200
C377        C  0.46107327  0.15948021  0.52242512     0.88200
C378        C  0.45029782  0.19033213  0.45451050     0.88400
O379        O  0.37844647  0.99249504  0.45864636    -0.73900
O380        O  0.32894565  0.00155300  0.48515221    -0.73900
O381        O  0.34796403  0.96937495  0.47056981    -0.74000
O382        O  0.35976119  0.02457969  0.47342036    -0.74000
O383        O  0.34647566  0.02894358  0.44346600    -0.74000
O384        O  0.33201412  0.97391246  0.44198394    -0.73900
O385        O  0.31454032  0.00699199  0.45592664    -0.73900
O386        O  0.36329399  0.99546889  0.42943024    -0.74000
Ni387      Ni  0.35425747  0.99685673  0.47301676     1.25400
Ni388      Ni  0.33849773  0.00157714  0.44168344     1.25400
C389        C  0.37891224  0.99233403  0.43965729     0.88300
C390        C  0.31352347  0.00542147  0.47480236     0.88200
C391        C  0.33805344  0.96256951  0.45591078     0.88200
C392        C  0.35588614  0.03561952  0.45855930     0.88400
O393        O  0.47722615  0.07145047  0.64197863    -0.73900
O394        O  0.48777518  0.04610091  0.69192474    -0.73900
O395        O  0.45505878  0.06069317  0.67367428    -0.74000
O396        O  0.50965107  0.05652772  0.65981161    -0.74000
O397        O  0.51506070  0.08681289  0.67194855    -0.74000
O398        O  0.46068034  0.08953638  0.68884962    -0.73900
O399        O  0.49435941  0.07558032  0.70535633    -0.73900
O400        O  0.48109966  0.10097584  0.65637858    -0.74000
Ni401      Ni  0.48222893  0.05761587  0.66642227     1.25400
Ni402      Ni  0.48808864  0.08924730  0.68120557     1.25400
C403        C  0.47733680  0.09043245  0.64107954     0.88300
C404        C  0.49263092  0.05676021  0.70691908     0.88200
C405        C  0.44883633  0.07574164  0.68340115     0.88200
C406        C  0.52106985  0.07133777  0.66263393     0.88400
O407        O  0.63283697  0.05576302  0.56690635    -0.73900
O408        O  0.67850552  0.04493163  0.53418495    -0.73900
O409        O  0.64574585  0.02428241  0.54588382    -0.74000
O410        O  0.66464696  0.07643280  0.55492150    -0.74000
O411        O  0.68057326  0.06640749  0.58207463    -0.74000
O412        O  0.66313616  0.01295142  0.57157163    -0.73900
O413        O  0.69513768  0.03543224  0.56106657    -0.73900
O414        O  0.64908770  0.04373759  0.59301221    -0.74000
Ni415      Ni  0.65492287  0.05066201  0.54947137     1.25400
Ni416      Ni  0.67263315  0.03922107  0.57785699     1.25400
C417        C  0.63350078  0.05128581  0.58536521     0.88300
C418        C  0.69453823  0.03892946  0.54246032     0.88200
C419        C  0.65071031  0.01019098  0.55746570     0.88200
C420        C  0.67517936  0.08018783  0.57014695     0.88400
O421        O  0.44491512  0.89514356  0.04481601    -0.73900
O422        O  0.47113177  0.84619038  0.03283074    -0.73900
O423        O  0.46043386  0.87849030  0.01183557    -0.74000
O424        O  0.45582830  0.86317925  0.06601522    -0.74000
O425        O  0.42710399  0.84819066  0.05959731    -0.74000
O426        O  0.43070887  0.86555233  0.00549460    -0.73900
O427        O  0.44194019  0.83236398  0.02594784    -0.73900
O428        O  0.41572845  0.88063410  0.03947645    -0.74000
Ni429      Ni  0.45914296  0.87120499  0.03908185     1.25400
Ni430      Ni  0.42785586  0.85612424  0.03230847     1.25400
C431        C  0.42598097  0.89575257  0.04447413     0.88300
C432        C  0.46075790  0.83119642  0.02758083     0.88200
C433        C  0.44610627  0.87516173  0.99996038     0.88200
C434        C  0.44068140  0.85341838  0.07177726     0.88400
O435        O  0.37867230  0.06190613  0.07629928    -0.73900
O436        O  0.33337797  0.04670749  0.04481540    -0.73900
O437        O  0.34594098  0.08015587  0.06290499    -0.74000
O438        O  0.36695523  0.02837472  0.05786123    -0.74000
O439        O  0.34996376  0.01830217  0.08435214    -0.74000
O440        O  0.33051162  0.07154467  0.09084203    -0.73900
O441        O  0.31722364  0.03869474  0.07247870    -0.73900
O442        O  0.36297820  0.05114735  0.10329706    -0.74000
Ni443      Ni  0.35676409  0.05453276  0.05944731     1.25400
Ni444      Ni  0.33958133  0.04455566  0.08872470     1.25400
C445        C  0.37821552  0.05876790  0.09503799     0.88300
C446        C  0.31757598  0.04095977  0.05367656     0.88200
C447        C  0.33509461  0.08450910  0.07773511     0.88200
C448        C  0.36233437  0.01495990  0.07034382     0.88400
O449        O  0.47182952  0.97095252  0.89133626    -0.73900
O450        O  0.48592432  0.00381946  0.84662034    -0.73900
O451        O  0.45304592  0.98426857  0.85890579    -0.74000
O452        O  0.50474529  0.99063622  0.88026306    -0.74000
O453        O  0.51563553  0.96457373  0.86305125    -0.74000
O454        O  0.46285725  0.95704916  0.84286965    -0.73900
O455        O  0.49533286  0.97668589  0.83025535    -0.73900
O456        O  0.48329143  0.94454948  0.87504986    -0.74000
Ni457      Ni  0.47863066  0.98847004  0.86980770     1.25400
Ni458      Ni  0.48968900  0.95982013  0.85216021     1.25400
C459        C  0.47533057  0.95229311  0.89039687     0.88300
C460        C  0.49227522  0.99535527  0.83076636     0.88200
C461        C  0.44925565  0.96931602  0.84794987     0.88200
C462        C  0.51842338  0.97832139  0.87588953     0.88400
O463        O  0.53344919  0.08709238  0.14823229    -0.73900
O464        O  0.52449574  0.05921359  0.19702879    -0.73900
O465        O  0.50166340  0.07109333  0.16625849    -0.74000
O466        O  0.55659745  0.07487701  0.17859168    -0.74000
O467        O  0.55138473  0.10307784  0.19505258    -0.74000
O468        O  0.49629876  0.10065714  0.18007114    -0.73900
O469        O  0.51836629  0.08799262  0.21210164    -0.73900
O470        O  0.52969618  0.11593856  0.16398470    -0.74000
Ni471      Ni  0.52923299  0.07204119  0.17203323     1.25400
Ni472      Ni  0.52365365  0.10291961  0.18843557     1.25400
C473        C  0.53321039  0.10609323  0.14817673     0.88300
C474        C  0.52018746  0.06910545  0.21267363     0.88200
C475        C  0.49012628  0.08550993  0.17030978     0.88200
C476        C  0.56310746  0.08955450  0.18868943     0.88400
O477        O  0.55621082  0.15233779  0.98503472    -0.73900
O478        O  0.52674754  0.20014596  0.99315684    -0.73900
O479        O  0.54531795  0.18319486  0.96193408    -0.74000
O480        O  0.53765918  0.16880162  0.01585879    -0.74000
O481        O  0.56532315  0.18458175  0.02461169    -0.74000
O482        O  0.57300222  0.19931350  0.96995336    -0.73900
O483        O  0.55452879  0.21601971  0.00131802    -0.73900
O484        O  0.58403461  0.16830615  0.99291154    -0.74000
Ni485      Ni  0.54047859  0.17564680  0.98871742     1.25400
Ni486      Ni  0.57021086  0.19267755  0.99754587     1.25400
C487        C  0.57494154  0.15246480  0.98782393     0.88300
C488        C  0.53585978  0.21601444  0.99822865     0.88200
C489        C  0.56043871  0.19342986  0.95698754     0.88200
C490        C  0.55048061  0.17354239  0.02892572     0.88400
O491        O  0.63126402  0.98969428  0.97263974    -0.73900
O492        O  0.67805963  0.00308927  0.00236951    -0.73900
O493        O  0.64418035  0.02229390  0.99132397    -0.74000
O494        O  0.66430281  0.97000729  0.98359913    -0.74000
O495        O  0.67935127  0.97983834  0.95587603    -0.74000
O496        O  0.65920345  0.03239802  0.96367319    -0.73900
O497        O  0.69270247  0.01277183  0.97439940    -0.73900
O498        O  0.64638735  0.99921370  0.94484474    -0.74000
Ni499      Ni  0.65401996  0.99595509  0.98855608     1.25400
Ni500      Ni  0.66998362  0.00646475  0.95876307     1.25400
C501        C  0.63124741  0.99226598  0.95381651     0.88300
C502        C  0.69320943  0.00985834  0.99310828     0.88200
C503        C  0.64773916  0.03567998  0.97844408     0.88200
C504        C  0.67459228  0.96619176  0.96815797     0.88400
O505        O  0.95763867  0.14611700  0.05064283    -0.73900
O506        O  0.98942709  0.19191702  0.03739096    -0.73900
O507        O  0.96987629  0.17878314  0.07000599    -0.74000
O508        O  0.97751523  0.15824676  0.01815411    -0.74000
O509        O  0.95109346  0.17469539  0.00715642    -0.74000
O510        O  0.94238639  0.19418994  0.06022143    -0.73900
O511        O  0.96207335  0.20763168  0.02779579    -0.73900
O512        O  0.93102203  0.16188163  0.03916085    -0.74000
Ni513      Ni  0.97464931  0.16828390  0.04435477     1.25400
Ni514      Ni  0.94572786  0.18524627  0.03320108     1.25400
C515        C  0.93904543  0.14655186  0.04681450     0.88300
C516        C  0.98075213  0.20747794  0.03072398     0.88200
C517        C  0.95459488  0.18917971  0.07389546     0.88200
C518        C  0.96530733  0.16241946  0.00434705     0.88400
O519        O  0.88078556  0.98901383  0.06732423    -0.73900
O520        O  0.83144943  0.00234696  0.04244133    -0.73900
O521        O  0.86458193  0.02251624  0.05292277    -0.74000
O522        O  0.84800530  0.96846207  0.05676078    -0.74000
O523        O  0.83340915  0.97478508  0.08573628    -0.74000
O524        O  0.85289261  0.02830382  0.08331091    -0.73900
O525        O  0.81860143  0.00944421  0.07205237    -0.73900
O526        O  0.86696798  0.99350043  0.09702134    -0.74000
Ni527      Ni  0.85660460  0.99536097  0.05377636     1.25400
Ni528      Ni  0.84242362  0.00179810  0.08555985     1.25400
C529        C  0.88190661  0.98899551  0.08627861     0.88300
C530        C  0.81688557  0.00805780  0.05319981     0.88200
C531        C  0.86231887  0.03399143  0.06783572     0.88200
C532        C  0.83812181  0.96268537  0.07186106     0.88400
O533        O  0.05079607  0.96520812  0.13339217    -0.73900
O534        O  0.03565900  0.99731669  0.17838767    -0.73900
O535        O  0.06887543  0.97823450  0.16649520    -0.74000
O536        O  0.01738946  0.98444196  0.14443982    -0.74000
O537        O  0.00659075  0.95823525  0.16138507    -0.74000
O538        O  0.05914186  0.95062987  0.18181482    -0.73900
O539        O  0.02653823  0.96998352  0.19447822    -0.73900
O540        O  0.03922111  0.93854498  0.14905853    -0.74000
Ni541      Ni  0.04345671  0.98232892  0.15514336     1.25400
Ni542      Ni  0.03247070  0.95340862  0.17226787     1.25400
C543        C  0.04741638  0.94651291  0.13395880     0.88300
C544        C  0.02927079  0.98873269  0.19411259     0.88200
C545        C  0.07261911  0.96323165  0.17735955     0.88200
C546        C  0.00363045  0.97224730  0.14894570     0.88400
O547        O  0.07424032  0.88292139  0.98132816    -0.73900
O548        O  0.04497744  0.83616632  0.99445444    -0.73900
O549        O  0.05829992  0.86826083  0.01460556    -0.74000
O550        O  0.06063641  0.85118417  0.96077844    -0.74000
O551        O  0.08831216  0.83429870  0.96695761    -0.74000
O552        O  0.08733383  0.85379387  0.02070946    -0.73900
O553        O  0.07321885  0.82061174  0.00146379    -0.73900
O554        O  0.10261273  0.86669193  0.98598853    -0.74000
Ni555      Ni  0.05853160  0.86013790  0.98756066     1.25400
Ni556      Ni  0.08886701  0.84320206  0.99406733     1.25400
C557        C  0.09318496  0.88252999  0.98170255     0.88300
C558        C  0.05434130  0.82060185  0.99990246     0.88200
C559        C  0.07272738  0.86461799  0.02624872     0.88200
C560        C  0.07475468  0.84000358  0.95496491     0.88400
O561        O  0.13614311  0.04640388  0.96018290    -0.73900
O562        O  0.18392510  0.03967411  0.99019857    -0.73900
O563        O  0.16612765  0.07029551  0.97119088    -0.74000
O564        O  0.15340480  0.01591301  0.97908953    -0.74000
O565        O  0.16919928  0.00751867  0.95128650    -0.74000
O566        O  0.18293350  0.06232072  0.94385456    -0.73900
O567        O  0.19998192  0.03127741  0.96256592    -0.73900
O568        O  0.15246516  0.03912477  0.93237758    -0.74000
Ni569      Ni  0.15939668  0.04329955  0.97617777     1.25400
Ni570      Ni  0.17676465  0.03470095  0.94654485     1.25400
C571        C  0.13655122  0.04427255  0.94132516     0.88300
C572        C  0.19988429  0.03464815  0.98125840     0.88200
C573        C  0.17637292  0.07529209  0.95609480     0.88200
C574        C  0.15858003  0.00289353  0.96633012     0.88400
O575        O  0.97301034  0.06514165  0.89108976    -0.73900
O576        O  0.98458403  0.03696524  0.84270298    -0.73900
O577        O  0.00523623  0.04788515  0.87592501    -0.74000
O578        O  0.95182781  0.05409058  0.85888139    -0.74000
O579        O  0.95979911  0.08215741  0.84340725    -0.74000
O580        O  0.01359830  0.07648400  0.86166966    -0.73900
O581        O  0.99302526  0.06556496  0.82852137    -0.73900
O582        O  0.98017949  0.09356883  0.87583832    -0.74000
Ni583      Ni  0.97840915  0.04992761  0.86755936     1.25400
Ni584      Ni  0.98699589  0.08040564  0.85177486     1.25400
C585        C  0.97476583  0.08405832  0.89125250     0.88300
C586        C  0.99043007  0.04685183  0.82753986     0.88200
C587        C  0.01788452  0.06155823  0.87262125     0.88200
C588        C  0.94689234  0.06930655  0.84876785     0.88400
O589        O  0.03002881  0.07990126  0.37686909    -0.73900
O590        O  0.02227822  0.05101966  0.32841222    -0.73900
O591        O  0.05371286  0.06800782  0.34674523    -0.74000
O592        O  0.99870964  0.06296939  0.35921104    -0.74000
O593        O  0.99254985  0.09164757  0.34402761    -0.74000
O594        O  0.04764919  0.09593846  0.33020934    -0.73900
O595        O  0.01580684  0.07932186  0.31270568    -0.73900
O596        O  0.02486454  0.10831524  0.36084286    -0.74000
Ni597      Ni  0.02635385  0.06442677  0.35328303     1.25400
Ni598      Ni  0.01989807  0.09477210  0.33630806     1.25400
C599        C  0.02884251  0.09884683  0.37676360     0.88300
C600        C  0.01836041  0.06051193  0.31245292     0.88200
C601        C  0.05976239  0.08279936  0.33657310     0.88200
C602        C  0.98684974  0.07699901  0.35468621     0.88400
O603        O  0.87344831  0.06102716  0.44843715    -0.73900
O604        O  0.82940495  0.04439537  0.48076320    -0.73900
O605        O  0.86317598  0.02713706  0.46662790    -0.74000
O606        O  0.84045425  0.07839384  0.46282975    -0.74000
O607        O  0.82439477  0.06969756  0.43527066    -0.74000
O608        O  0.84622163  0.01700039  0.44011681    -0.73900
O609        O  0.81290896  0.03594630  0.45341031    -0.73900
O610        O  0.85733088  0.05082328  0.42145447    -0.74000
Ni611      Ni  0.85214692  0.05300011  0.46565446     1.25400
Ni612      Ni  0.83460219  0.04297457  0.43659529     1.25400
C613        C  0.87265399  0.05843095  0.42960467     0.88300
C614        C  0.81360173  0.03815801  0.47222723     0.88200
C615        C  0.85893244  0.01381045  0.45388256     0.88200
C616        C  0.82899272  0.08266134  0.44843360     0.88400
O617        O  0.95188791  0.89978396  0.47390002    -0.73900
O618        O  0.98170803  0.85376064  0.48876226    -0.73900
O619        O  0.96405141  0.86667546  0.45498206    -0.74000
O620        O  0.96946013  0.88757365  0.50718622    -0.74000
O621        O  0.94159962  0.87248849  0.51646496    -0.74000
O622        O  0.93642086  0.85091845  0.46379892    -0.73900
O623        O  0.95382190  0.83863149  0.49782779    -0.73900
O624        O  0.92395733  0.88430175  0.48227318    -0.74000
Ni625      Ni  0.96780989  0.87738169  0.48091555     1.25400
Ni626      Ni  0.93797624  0.86098355  0.49046857     1.25400
C627        C  0.93303153  0.89959193  0.47572905     0.88300
C628        C  0.97260816  0.83854146  0.49555874     0.88200
C629        C  0.94920127  0.85576273  0.45063974     0.88200
C630        C  0.95609361  0.88421752  0.52012557     0.88400
O631        O  0.05754826  0.14711663  0.53900683    -0.73900
O632        O  0.03066312  0.19645276  0.52889266    -0.73900
O633        O  0.04008776  0.16345734  0.50744520    -0.74000
O634        O  0.04769732  0.17916958  0.56078519    -0.74000
O635        O  0.07630950  0.19368457  0.55297954    -0.74000
O636        O  0.06870624  0.17738591  0.49865397    -0.73900
O637        O  0.05951656  0.21024682  0.52077000    -0.73900
O638        O  0.08620151  0.16158699  0.53128583    -0.74000
Ni639      Ni  0.04293480  0.17114705  0.53427478     1.25400
Ni640      Ni  0.07368530  0.18627982  0.52553142     1.25400
C641        C  0.07638601  0.14641650  0.53690587     0.88300
C642        C  0.04089730  0.21161948  0.52372700     0.88200
C643        C  0.05334795  0.16696695  0.49449686     0.88200
C644        C  0.06328459  0.18857972  0.56580649     0.88400
O645        O  0.12764735  0.98255821  0.55786508    -0.73900
O646        O  0.17456491  0.99312032  0.52727548    -0.73900
O647        O  0.15996985  0.96140175  0.54719503    -0.74000
O648        O  0.14141661  0.01380159  0.53787353    -0.74000
O649        O  0.15655235  0.02445975  0.56528321    -0.74000
O650        O  0.17605079  0.97170652  0.57420038    -0.73900
O651        O  0.18960195  0.00374443  0.55473305    -0.73900
O652        O  0.14353415  0.99216909  0.58525013    -0.74000
Ni653      Ni  0.15043209  0.98736066  0.54151806     1.25400
Ni654      Ni  0.16701945  0.99844191  0.57080595     1.25400
C655        C  0.12798670  0.98577760  0.57658884     0.88300
C656        C  0.18993593  0.99988137  0.53619133     0.88200
C657        C  0.17087832  0.95787722  0.56223566     0.88200
C658        C  0.14510514  0.02749421  0.55043670     0.88400
O659        O  0.97016386  0.97701667  0.63689275    -0.73900
O660        O  0.98342430  0.00272754  0.68617751    -0.73900
O661        O  0.00317789  0.99248879  0.65255306    -0.74000
O662        O  0.95000487  0.98764618  0.66988671    -0.74000
O663        O  0.95689206  0.95859401  0.68402988    -0.74000
O664        O  0.01057937  0.96296399  0.66539690    -0.73900
O665        O  0.99074565  0.97327629  0.69920475    -0.73900
O666        O  0.97636443  0.94770226  0.65081004    -0.74000
Ni667      Ni  0.97647297  0.99104907  0.66097412     1.25400
Ni668      Ni  0.98397293  0.95960454  0.67537728     1.25400
C669        C  0.97103837  0.95805531  0.63589926     0.88300
C670        C  0.98892433  0.99204182  0.70090377     0.88200
C671        C  0.01536592  0.97833032  0.65528638     0.88200
C672        C  0.94460975  0.97236282  0.67962099     0.88400
O673        O  0.72168894  0.64963415  0.81074660    -0.73900
O674        O  0.73194271  0.60187046  0.78151301    -0.73900
O675        O  0.69985003  0.61757578  0.80005397    -0.74000
O676        O  0.75313415  0.63440358  0.79233070    -0.74000
O677        O  0.76233728  0.61948818  0.82032622    -0.74000
O678        O  0.70850885  0.60180741  0.82773894    -0.73900
O679        O  0.74099426  0.58680449  0.80946713    -0.73900
O680        O  0.72975458  0.63415479  0.83880131    -0.74000
Ni681      Ni  0.72631919  0.62630129  0.79514615     1.25400
Ni682      Ni  0.73573555  0.60995876  0.82507193     1.25400
C683        C  0.72434081  0.64976834  0.82953776     0.88300
C684        C  0.73817892  0.58648697  0.79071608     0.88200
C685        C  0.69529712  0.60713210  0.81519257     0.88200
C686        C  0.76627188  0.63055548  0.80538871     0.88400
O687        O  0.88526066  0.71813431  0.79524294    -0.73900
O688        O  0.93165005  0.74887539  0.78345615    -0.73900
O689        O  0.89781730  0.73880542  0.76383806    -0.74000
O690        O  0.91854062  0.72830000  0.81521238    -0.74000
O691        O  0.93392693  0.70126841  0.80401499    -0.74000
O692        O  0.91275871  0.71180173  0.75198817    -0.73900
O693        O  0.94651528  0.72165372  0.77204470    -0.73900
O694        O  0.90046737  0.69089798  0.78429854    -0.74000
Ni695      Ni  0.90785254  0.73450714  0.78983397     1.25400
Ni696      Ni  0.92396249  0.70544284  0.77760337     1.25400
C697        C  0.88524738  0.69949601  0.79161729     0.88300
C698        C  0.94687769  0.74014644  0.77620475     0.88200
C699        C  0.90135519  0.72682751  0.74961045     0.88200
C700        C  0.92952182  0.71318115  0.81816159     0.88400
O701        O  0.62342112  0.83505284  0.73066243    -0.73900
O702        O  0.57575717  0.80807163  0.74584057    -0.73900
O703        O  0.59108459  0.82149206  0.71131644    -0.74000
O704        O  0.60857814  0.82122682  0.76485672    -0.74000
O705        O  0.59426845  0.85057765  0.77008439    -0.74000
O706        O  0.57571556  0.85035918  0.71603097    -0.73900
O707        O  0.56105209  0.83721818  0.75093944    -0.73900
O708        O  0.60833664  0.86412873  0.73500868    -0.74000
Ni709      Ni  0.60016590  0.82041789  0.73800930     1.25400
Ni710      Ni  0.58425661  0.85160755  0.74326269     1.25400
C711        C  0.62369049  0.85405112  0.73041238     0.88300
C712        C  0.56046936  0.81826927  0.75056328     0.88200
C713        C  0.58074445  0.83590254  0.70474810     0.88200
C714        C  0.60495650  0.83604536  0.77602937     0.88400
O715        O  0.70104365  0.81333158  0.88605064    -0.73900
O716        O  0.73200372  0.80012478  0.93206578    -0.73900
O717        O  0.72147872  0.78112286  0.89785369    -0.74000
O718        O  0.71167060  0.83239941  0.91950432    -0.74000
O719        O  0.68446340  0.82128904  0.93455111    -0.74000
O720        O  0.69475450  0.76936090  0.91325024    -0.73900
O721        O  0.70467732  0.78921676  0.94700290    -0.73900
O722        O  0.67411998  0.80154550  0.90107680    -0.74000
Ni723      Ni  0.71756291  0.80710041  0.90837958     1.25400
Ni724      Ni  0.68856409  0.79488522  0.92450913     1.25400
C725        C  0.68243393  0.80966947  0.88613397     0.88300
C726        C  0.72321112  0.79297303  0.94731324     0.88200
C727        C  0.70954873  0.76692712  0.90159087     0.88200
C728        C  0.69643668  0.83538851  0.93031369     0.88400
O729        O  0.81008885  0.74475052  0.63377069    -0.73900
O730        O  0.78031973  0.75355191  0.58592583    -0.73900
O731        O  0.79881376  0.72207356  0.60260991    -0.74000
O732        O  0.79158588  0.77585123  0.61794524    -0.74000
O733        O  0.81951338  0.78454029  0.60265366    -0.74000
O734        O  0.82626202  0.73009658  0.58613129    -0.73900
O735        O  0.80817175  0.76205960  0.57043047    -0.73900
O736        O  0.83794602  0.75216696  0.61768896    -0.74000
Ni737      Ni  0.79417229  0.74880996  0.61051247     1.25400
Ni738      Ni  0.82392869  0.75760011  0.59358832     1.25400
C739        C  0.82890994  0.74705693  0.63353478     0.88300
C740        C  0.78954114  0.75867852  0.57012770     0.88200
C741        C  0.81373315  0.71712941  0.59207457     0.88200
C742        C  0.80486917  0.78872229  0.61403664     0.88400
O743        O  0.78714308  0.90489154  0.70494405    -0.73900
O744        O  0.77314732  0.95143250  0.73486926    -0.73900
O745        O  0.75381191  0.91836377  0.72179937    -0.74000
O746        O  0.80663917  0.93719725  0.71828473    -0.74000
O747        O  0.79943876  0.95330530  0.69035086    -0.74000
O748        O  0.74579729  0.93415955  0.69391116    -0.73900
O749        O  0.76578825  0.96707823  0.70673563    -0.73900
O750        O  0.77998190  0.92088526  0.67694720    -0.74000
Ni751      Ni  0.78038499  0.92747885  0.72100114     1.25400
Ni752      Ni  0.77239102  0.94443679  0.69098992     1.25400
C753        C  0.78599370  0.90535455  0.68598476     0.88300
C754        C  0.76781840  0.96712271  0.72558308     0.88200
C755        C  0.74130846  0.92254230  0.70827463     0.88200
C756        C  0.81183862  0.94809726  0.70373691     0.88400
O757        O  0.20489428  0.80622555  0.63552354    -0.73900
O758        O  0.23916842  0.79259396  0.59192493    -0.73900
O759        O  0.21749346  0.82468255  0.60254213    -0.74000
O760        O  0.22673503  0.77421636  0.62569164    -0.74000
O761        O  0.20166166  0.76136729  0.60841001    -0.74000
O762        O  0.19114606  0.81276791  0.58654808    -0.73900
O763        O  0.21303957  0.78111344  0.57531634    -0.73900
O764        O  0.17953239  0.79265527  0.61925650    -0.74000
Ni765      Ni  0.22306403  0.79982483  0.61446086     1.25400
Ni766      Ni  0.19546391  0.78652164  0.59673853     1.25400
C767        C  0.18657769  0.80140439  0.63451768     0.88300
C768        C  0.23152919  0.78495804  0.57626246     0.88200
C769        C  0.20255604  0.82720468  0.59125796     0.88200
C770        C  0.21548119  0.75966043  0.62128837     0.88400
O771        O  0.22930101  0.64403642  0.71465460    -0.73900
O772        O  0.23914436  0.59374543  0.73928769    -0.73900
O773        O  0.26147296  0.62588366  0.72970817    -0.74000
O774        O  0.20680614  0.61235356  0.72444612    -0.74000
O775        O  0.21294535  0.59761000  0.69546700    -0.74000
O776        O  0.26724765  0.61397016  0.69938301    -0.73900
O777        O  0.24609301  0.58071945  0.70968073    -0.73900
O778        O  0.23367107  0.62992995  0.68502327    -0.74000
Ni779      Ni  0.23399236  0.61941892  0.72813734     1.25400
Ni780      Ni  0.24031448  0.60501578  0.69637712     1.25400
C781        C  0.22961304  0.64503012  0.69569510     0.88300
C782        C  0.24386339  0.57888854  0.72840106     0.88200
C783        C  0.27306994  0.62311805  0.71500442     0.88200
C784        C  0.20086525  0.60289879  0.70909771     0.88400
O785        O  0.31331738  0.74772231  0.89421395    -0.73900
O786        O  0.28473643  0.76002421  0.94188975    -0.73900
O787        O  0.29858792  0.78095520  0.91032862    -0.74000
O788        O  0.29937330  0.72639551  0.92507303    -0.74000
O789        O  0.32723056  0.73129062  0.94211971    -0.74000
O790        O  0.32780298  0.78560891  0.92502373    -0.73900
O791        O  0.31335732  0.76566216  0.95733970    -0.73900
O792        O  0.34182244  0.75099671  0.91057303    -0.74000
Ni793      Ni  0.29793227  0.75362834  0.91739841     1.25400
Ni794      Ni  0.32852907  0.75863394  0.93441800     1.25400
C795        C  0.33225787  0.74727011  0.89465066     0.88300
C796        C  0.29446263  0.76465717  0.95754750     0.88200
C797        C  0.31348860  0.79190186  0.91427861     0.88200
C798        C  0.31353715  0.71979639  0.93573650     0.88400
O799        O  0.38391837  0.71977934  0.72927692    -0.73900
O800        O  0.42809984  0.75359043  0.74209165    -0.73900
O801        O  0.41616041  0.73270214  0.70976898    -0.74000
O802        O  0.39516283  0.74081721  0.76143866    -0.74000
O803        O  0.41240379  0.71519094  0.77309930    -0.74000
O804        O  0.43262682  0.70612418  0.72039268    -0.73900
O805        O  0.44480431  0.72707304  0.75243410    -0.73900
O806        O  0.40042092  0.69383600  0.74130492    -0.74000
Ni807      Ni  0.40528696  0.73769511  0.73529989     1.25400
Ni808      Ni  0.42320533  0.70963468  0.74720744     1.25400
C809        C  0.38493358  0.70125261  0.73336569     0.88300
C810        C  0.44387875  0.74569590  0.74909488     0.88200
C811        C  0.42747157  0.71793026  0.70641644     0.88200
C812        C  0.39991793  0.72925925  0.77564722     0.88400
O813        O  0.13284390  0.82339335  0.78944659    -0.73900
O814        O  0.08434387  0.79505145  0.78033300    -0.73900
O815        O  0.11472165  0.80775157  0.75747622    -0.74000
O816        O  0.10264540  0.81039526  0.81270014    -0.74000
O817        O  0.08568326  0.83831106  0.80782148    -0.74000
O818        O  0.10055963  0.83725776  0.75288030    -0.73900
O819        O  0.06903818  0.82373779  0.77454736    -0.73900
O820        O  0.11665199  0.85201669  0.78633023    -0.74000
Ni821      Ni  0.10917391  0.80810558  0.78517768     1.25400
Ni822      Ni  0.09237352  0.83883184  0.78018153     1.25400
C823        C  0.13265300  0.84239542  0.78932305     0.88300
C824        C  0.06868323  0.80484275  0.77601124     0.88200
C825        C  0.11038411  0.82238747  0.74632449     0.88200
C826        C  0.09198674  0.82459786  0.81931178     0.88400
O827        O  0.29531742  0.89988990  0.81516582    -0.73900
O828        O  0.28187618  0.94450974  0.78228237    -0.73900
O829        O  0.31416337  0.93279897  0.80313211    -0.74000
O830        O  0.26311827  0.91079349  0.79422383    -0.74000
O831        O  0.25107577  0.92750638  0.82010455    -0.74000
O832        O  0.30310529  0.94861946  0.82999824    -0.73900
O833        O  0.27105321  0.96069088  0.80900075    -0.73900
O834        O  0.28305477  0.91585074  0.84140484    -0.74000
Ni835      Ni  0.28896586  0.92149210  0.79770406     1.25400
Ni836      Ni  0.27661635  0.93878480  0.82604597     1.25400
C837        C  0.29143163  0.90066253  0.83375492     0.88300
C838        C  0.27458093  0.96009730  0.79037935     0.88200
C839        C  0.31723989  0.94373069  0.81828566     0.88200
C840        C  0.24882732  0.91514366  0.80581793     0.88400
O841        O  0.13290467  0.72296957  0.30279079    -0.73900
O842        O  0.08587771  0.74994390  0.28523400    -0.73900
O843        O  0.09906791  0.73542094  0.32019265    -0.74000
O844        O  0.12052664  0.73780051  0.26814516    -0.74000
O845        O  0.10651521  0.70883594  0.26050202    -0.74000
O846        O  0.08472753  0.70646349  0.31317341    -0.73900
O847        O  0.07211303  0.72074182  0.27815268    -0.73900
O848        O  0.11859276  0.69396845  0.29592634    -0.74000
Ni849      Ni  0.11002214  0.73761277  0.29428592     1.25400
Ni850      Ni  0.09496848  0.70648348  0.28659927     1.25400
C851        C  0.13337273  0.70397867  0.30222228     0.88300
C852        C  0.07102685  0.73959958  0.27940358     0.88200
C853        C  0.08862409  0.72053852  0.32535487     0.88200
C854        C  0.11772067  0.72351603  0.25605025     0.88400
O855        O  0.29565738  0.64452719  0.32494737    -0.73900
O856        O  0.27744799  0.60026358  0.29419878    -0.73900
O857        O  0.26092861  0.63438200  0.30825963    -0.74000
O858        O  0.31212480  0.61122274  0.31091386    -0.74000
O859        O  0.30403643  0.59590765  0.33905175    -0.74000
O860        O  0.25152133  0.61777930  0.33522827    -0.73900
O861        O  0.26981706  0.58413292  0.32199246    -0.73900
O862        O  0.28597835  0.62913413  0.35253240    -0.74000
Ni863      Ni  0.28674369  0.62309613  0.30855057     1.25400
Ni864      Ni  0.27745023  0.60614274  0.33818863     1.25400
C865        C  0.29389435  0.64398838  0.34383454     0.88300
C866        C  0.27134247  0.58464861  0.30310952     0.88200
C867        C  0.24798109  0.63034059  0.32143321     0.88200
C868        C  0.31673023  0.60027892  0.32563392     0.88400
O869        O  0.21162141  0.73669420  0.14129274    -0.73900
O870        O  0.24068553  0.75153474  0.09459799    -0.73900
O871        O  0.22951753  0.76973673  0.12891617    -0.74000
O872        O  0.22290353  0.71791188  0.10772720    -0.74000
O873        O  0.19498817  0.72726655  0.09278412    -0.74000
O874        O  0.20153068  0.77957946  0.11439330    -0.73900
O875        O  0.21251089  0.76093898  0.08022285    -0.73900
O876        O  0.18356702  0.74576402  0.12643844    -0.74000
Ni877      Ni  0.22723540  0.74365025  0.11855209     1.25400
Ni878      Ni  0.19717524  0.75377963  0.10289400     1.25400
C879        C  0.19279654  0.73896162  0.14150147     0.88300
C880        C  0.23123907  0.75844203  0.07962254     0.88200
C881        C  0.21630387  0.78287418  0.12584617     0.88200
C882        C  0.20772640  0.71392431  0.09716158     0.88400
O883        O  0.32178244  0.80004366  0.39692436    -0.73900
O884        O  0.29482207  0.78550341  0.44472289    -0.73900
O885        O  0.30743694  0.82002356  0.42854778    -0.74000
O886        O  0.30898809  0.76586852  0.41266557    -0.74000
O887        O  0.33838022  0.76216514  0.42728555    -0.74000
O888        O  0.33615510  0.81637922  0.44443492    -0.73900
O889        O  0.32391436  0.78161808  0.45983053    -0.73900
O890        O  0.35078525  0.79727643  0.41247069    -0.74000
Ni891      Ni  0.30719662  0.79297441  0.42022793     1.25400
Ni892      Ni  0.33833166  0.78916410  0.43660280     1.25400
C893        C  0.34071210  0.80099928  0.39688325     0.88300
C894        C  0.30498793  0.78149349  0.46022684     0.88200
C895        C  0.32161613  0.82717101  0.43886425     0.88200
C896        C  0.32411502  0.75534249  0.41679547     0.88400
O897        O  0.38831310  0.82447812  0.23567156    -0.73900
O898        O  0.43617662  0.79456598  0.24263441    -0.73900
O899        O  0.40511367  0.80534211  0.26593867    -0.74000
O900        O  0.41850276  0.81358325  0.21195459    -0.74000
O901        O  0.43513071  0.84100442  0.22001432    -0.74000
O902        O  0.42085350  0.83307168  0.27472602    -0.73900
O903        O  0.45194359  0.82232377  0.25120715    -0.73900
O904        O  0.40478636  0.85213086  0.24328845    -0.74000
Ni905      Ni  0.41156392  0.80844106  0.23878343     1.25400
Ni906      Ni  0.42883281  0.83807621  0.24767292     1.25400
C907        C  0.38886150  0.84328492  0.23820764     0.88300
C908        C  0.45200177  0.80369196  0.24781520     0.88200
C909        C  0.40979173  0.81822413  0.27898084     0.88200
C910        C  0.42851642  0.82882386  0.20699012     0.88400
O911        O  0.22905914  0.89920657  0.21689771    -0.73900
O912        O  0.23858099  0.94692156  0.24672742    -0.73900
O913        O  0.20759523  0.93159351  0.22624640    -0.74000
O914        O  0.25954128  0.91370761  0.23756752    -0.74000
O915        O  0.27102025  0.92840186  0.21027995    -0.74000
O916        O  0.21834538  0.94692244  0.19901363    -0.73900
O917        O  0.24960612  0.96146489  0.21919385    -0.73900
O918        O  0.23975879  0.91444492  0.18959852    -0.74000
Ni919      Ni  0.23332376  0.92242666  0.23289435     1.25400
Ni920      Ni  0.24513210  0.93840310  0.20358448     1.25400
C921        C  0.23293362  0.89909571  0.19830041     0.88300
C922        C  0.24537159  0.96215122  0.23763148     0.88200
C923        C  0.20428503  0.94179980  0.21069295     0.88200
C924        C  0.27355502  0.91718559  0.22539449     0.88400
O925        O  0.62808611  0.21726499  0.79481964    -0.73900
O926        O  0.58023516  0.24633328  0.78509220    -0.73900
O927        O  0.59739087  0.22976929  0.81747270    -0.74000
O928        O  0.61135702  0.23394878  0.76278277    -0.74000
O929        O  0.59653401  0.20502388  0.75663363    -0.74000
O930        O  0.58055112  0.20204009  0.81112922    -0.73900
O931        O  0.56477638  0.21795910  0.77811449    -0.73900
O932        O  0.61180286  0.18892259  0.78987514    -0.74000
Ni933      Ni  0.60477294  0.23288761  0.79026457     1.25400
Ni934      Ni  0.58779482  0.20251525  0.78366085     1.25400
C935        C  0.62772312  0.19829876  0.79398329     0.88300
C936        C  0.56459446  0.23679686  0.78013006     0.88200
C937        C  0.58674208  0.21522649  0.82330305     0.88200
C938        C  0.60705429  0.21976207  0.75098843     0.88400
O939        O  0.73225819  0.40143778  0.70790050    -0.73900
O940        O  0.74284494  0.45015411  0.73512468    -0.73900
O941        O  0.71024680  0.43281375  0.71922611    -0.74000
O942        O  0.76467578  0.41839379  0.72397408    -0.74000
O943        O  0.77087729  0.43153763  0.69430257    -0.74000
O944        O  0.71665003  0.44886592  0.69107500    -0.73900
O945        O  0.75015148  0.46457247  0.70631863    -0.73900
O946        O  0.73698865  0.41657223  0.67891061    -0.74000
Ni947      Ni  0.73731443  0.42523333  0.72259918     1.25400
Ni948      Ni  0.74399705  0.44096976  0.69163066     1.25400
C949        C  0.73253004  0.40113245  0.68891795     0.88300
C950        C  0.74797531  0.46544801  0.72515019     0.88200
C951        C  0.70444848  0.44309324  0.70440936     0.88200
C952        C  0.77652341  0.42184473  0.70963835     0.88400
O953        O  0.69913178  0.23781034  0.63775374    -0.73900
O954        O  0.73173388  0.25068421  0.59267684    -0.73900
O955        O  0.71879939  0.27026198  0.62565083    -0.74000
O956        O  0.71235328  0.21809855  0.60570953    -0.74000
O957        O  0.68515972  0.22734409  0.58942776    -0.74000
O958        O  0.69261999  0.28074813  0.60847694    -0.73900
O959        O  0.70464437  0.25974172  0.57615372    -0.73900
O960        O  0.67260691  0.24849101  0.62126739    -0.74000
Ni961      Ni  0.71650722  0.24393442  0.61598070     1.25400
Ni962      Ni  0.68782045  0.25446315  0.59818587     1.25400
C963        C  0.68048299  0.24116791  0.63684375     0.88300
C964        C  0.72331066  0.25688460  0.57679647     0.88200
C965        C  0.70666856  0.28391855  0.62086413     0.88200
C966        C  0.69754017  0.21395209  0.59476716     0.88400
O967        O  0.79269622  0.14547018  0.82209527    -0.73900
O968        O  0.77910415  0.10059368  0.78937292    -0.73900
O969        O  0.76038084  0.13431441  0.80132829    -0.74000
O970        O  0.81146032  0.11259180  0.80976708    -0.74000
O971        O  0.80103904  0.09740607  0.83716749    -0.74000
O972        O  0.74837620  0.11744540  0.82705221    -0.73900
O973        O  0.76917059  0.08448507  0.81642374    -0.73900
O974        O  0.78000599  0.12995682  0.84834943    -0.74000
Ni975      Ni  0.78623693  0.12377054  0.80466096     1.25400
Ni976      Ni  0.77420386  0.10671124  0.83319324     1.25400
C977        C  0.78848577  0.14500069  0.84062812     0.88300
C978        C  0.77243505  0.08490396  0.79776348     0.88200
C979        C  0.74605735  0.12980746  0.81280397     0.88200
C980        C  0.81491795  0.10191194  0.82497349     0.88400
O981        O  0.88707701  0.32573073  0.72841348    -0.73900
O982        O  0.93221014  0.29299647  0.74063908    -0.73900
O983        O  0.89879160  0.30473898  0.76043344    -0.74000
O984        O  0.91958949  0.31387135  0.70886812    -0.74000
O985        O  0.93486888  0.34115325  0.71963015    -0.74000
O986        O  0.91596246  0.33035520  0.77234863    -0.73900
O987        O  0.94843428  0.31994541  0.75073658    -0.73900
O988        O  0.90273425  0.35188027  0.74122014    -0.74000
Ni989      Ni  0.90888473  0.30832070  0.73428162     1.25400
Ni990      Ni  0.92611633  0.33674562  0.74644850     1.25400
C991        C  0.88759691  0.34422254  0.73280277     0.88300
C992        C  0.94805902  0.30137136  0.74693976     0.88200
C993        C  0.90354944  0.31619960  0.77475417     0.88200
C994        C  0.93008162  0.32924484  0.70559117     0.88400
O995        O  0.81327500  0.30078222  0.89210855    -0.73900
O996        O  0.78568192  0.29261057  0.94119003    -0.73900
O997        O  0.80118912  0.32436705  0.92229432    -0.74000
O998        O  0.79740431  0.26916076  0.91077827    -0.74000
O999        O  0.82688938  0.26407245  0.92473826    -0.74000
O1000       O  0.82932657  0.31920956  0.93878106    -0.73900
O1001       O  0.81443552  0.28662536  0.95624488    -0.73900
O1002       O  0.84204301  0.29707432  0.90786481    -0.74000
Ni1003     Ni  0.79834702  0.29689710  0.91606661     1.25400
Ni1004     Ni  0.82918655  0.29148980  0.93249092     1.25400
C1005       C  0.83224084  0.30045164  0.89202520     0.88300
C1006       C  0.79562005  0.28854319  0.95684603     0.88200
C1007       C  0.81573346  0.33084341  0.93254748     0.88200
C1008       C  0.81174652  0.25769023  0.91523690     0.88400
O1009       O  0.28646404  0.14016527  0.69935666    -0.73900
O1010       O  0.27329611  0.09225502  0.72684096    -0.73900
O1011       O  0.30718720  0.10876021  0.71311900    -0.74000
O1012       O  0.25294413  0.12423619  0.71308888    -0.74000
O1013       O  0.24842558  0.10929061  0.68389544    -0.74000
O1014       O  0.30286281  0.09284025  0.68443571    -0.73900
O1015       O  0.26880989  0.07692682  0.69787470    -0.73900
O1016       O  0.28280234  0.12461030  0.67037957    -0.74000
Ni1017     Ni  0.28010000  0.11681450  0.71416076     1.25400
Ni1018     Ni  0.27549590  0.10029704  0.68313310     1.25400
C1019       C  0.28665553  0.14027370  0.68036991     0.88300
C1020       C  0.26935757  0.07658349  0.71684841     0.88200
C1021       C  0.31400432  0.09843433  0.69874635     0.88200
C1022       C  0.24210859  0.12021130  0.69811099     0.88400
O1023       O  0.13000176  0.21220300  0.72390837    -0.73900
O1024       O  0.08314157  0.24160133  0.73828364    -0.73900
O1025       O  0.11662689  0.22931775  0.75743233    -0.74000
O1026       O  0.09761081  0.22486930  0.70480772    -0.74000
O1027       O  0.08257840  0.19638709  0.71222115    -0.74000
O1028       O  0.10063939  0.20172810  0.76610753    -0.73900
O1029       O  0.06785373  0.21321309  0.74540275    -0.73900
O1030       O  0.11460264  0.18434400  0.73270460    -0.74000
Ni1031     Ni  0.10731451  0.22807611  0.73093421     1.25400
Ni1032     Ni  0.09082942  0.19795030  0.73948569     1.25400
C1033       C  0.12974872  0.19328824  0.72574259     0.88300
C1034       C  0.06754960  0.23203262  0.74346202     0.88200
C1035       C  0.11242034  0.21606330  0.77020413     0.88200
C1036       C  0.08763235  0.20967544  0.69964049     0.88400
O1037       O  0.30634578  0.30410854  0.63222206    -0.73900
O1038       O  0.27885750  0.29166999  0.58390895    -0.73900
O1039       O  0.29049277  0.27126801  0.61666120    -0.74000
O1040       O  0.29456149  0.32490944  0.60041068    -0.74000
O1041       O  0.32318164  0.31844520  0.58523130    -0.74000
O1042       O  0.31914147  0.26404718  0.60188402    -0.73900
O1043       O  0.30771681  0.28512607  0.56927362    -0.73900
O1044       O  0.33506324  0.29778611  0.61717224    -0.74000
Ni1045     Ni  0.29148621  0.29818086  0.60871206     1.25400
Ni1046     Ni  0.32227831  0.29102738  0.59279939     1.25400
C1047       C  0.32527143  0.30309227  0.63249366     0.88300
C1048       C  0.28889237  0.28672448  0.56853866     0.88200
C1049       C  0.30437236  0.25907830  0.61274426     0.88200
C1050       C  0.30975598  0.33066034  0.59076474     0.88400
O1051       O  0.38058729  0.32130076  0.79311816    -0.73900
O1052       O  0.42729211  0.29150491  0.78113297    -0.73900
O1053       O  0.41229737  0.30911593  0.81397051    -0.74000
O1054       O  0.39471031  0.30378432  0.76068218    -0.74000
O1055       O  0.41030965  0.33168545  0.75227339    -0.74000
O1056       O  0.42838402  0.33687097  0.80602599    -0.73900
O1057       O  0.44281977  0.31952767  0.77305622    -0.73900
O1058       O  0.39650716  0.34927841  0.78556991    -0.74000
Ni1059     Ni  0.40326904  0.30536408  0.78746577     1.25400
Ni1060     Ni  0.42013983  0.33530052  0.77887158     1.25400
C1061       C  0.38093448  0.34015717  0.79122735     0.88300
C1062       C  0.44289314  0.30077230  0.77560667     0.88200
C1063       C  0.42281198  0.32406419  0.81886971     0.88200
C1064       C  0.39865909  0.31728959  0.74806034     0.88400
O1065       O  0.21796486  0.39155602  0.80640852    -0.73900
O1066       O  0.23024022  0.43857022  0.77647107    -0.73900
O1067       O  0.25021827  0.40564034  0.78837694    -0.74000
O1068       O  0.19745544  0.42382563  0.79433494    -0.74000
O1069       O  0.20594006  0.44002514  0.82192843    -0.74000
O1070       O  0.25903971  0.42080908  0.81645797    -0.73900
O1071       O  0.23913288  0.45361786  0.80455639    -0.73900
O1072       O  0.22568850  0.40754946  0.83433082    -0.74000
Ni1073     Ni  0.22367463  0.41441910  0.79034396     1.25400
Ni1074     Ni  0.23278919  0.43109772  0.82028525     1.25400
C1075       C  0.21995411  0.39189739  0.82531735     0.88300
C1076       C  0.23655380  0.45390870  0.78580414     0.88200
C1077       C  0.26301241  0.40945359  0.80175920     0.88200
C1078       C  0.19295324  0.43469470  0.80917368     0.88400
O1079       O  0.20234283  0.23283697  0.88732502    -0.73900
O1080       O  0.22960251  0.24658516  0.93540054    -0.73900
O1081       O  0.21209221  0.21351653  0.92083805    -0.74000
O1082       O  0.21989368  0.26566506  0.90096143    -0.74000
O1083       O  0.19145725  0.27546875  0.91458777    -0.74000
O1084       O  0.18358940  0.22264347  0.93480338    -0.73900
O1085       O  0.20094375  0.25588784  0.94887426    -0.73900
O1086       O  0.17377445  0.24188473  0.90122132    -0.74000
Ni1087     Ni  0.21705396  0.23937927  0.91075137     1.25400
Ni1088     Ni  0.18646092  0.24940949  0.92541460     1.25400
C1089       C  0.18353789  0.23503494  0.88650437     0.88300
C1090       C  0.21957932  0.25293183  0.95025119     0.88200
C1091       C  0.19644922  0.20932861  0.93059111     0.88200
C1092       C  0.20661044  0.27884774  0.90363086     0.88400
O1093       O  0.30129838  0.24440640  0.13749024    -0.73900
O1094       O  0.27279836  0.25315191  0.08882699    -0.73900
O1095       O  0.29131270  0.22197603  0.10563694    -0.74000
O1096       O  0.28249945  0.27527317  0.12131729    -0.74000
O1097       O  0.31069321  0.28471876  0.10698947    -0.74000
O1098       O  0.31912464  0.23078197  0.09016236    -0.73900
O1099       O  0.30095441  0.26244096  0.07434235    -0.73900
O1100       O  0.32942828  0.25257457  0.12225812    -0.74000
Ni1101     Ni  0.28594789  0.24841601  0.11377695     1.25400
Ni1102     Ni  0.31602860  0.25803636  0.09786846     1.25400
C1103       C  0.32007925  0.24707966  0.13777278     0.88300
C1104       C  0.28243801  0.25866119  0.07341272     0.88200
C1105       C  0.30655108  0.21755948  0.09538042     0.88200
C1106       C  0.29545950  0.28854090  0.11768615     0.88400
O1107       O  0.28535045  0.40547765  0.20759211    -0.73900
O1108       O  0.27453953  0.45128246  0.23956538    -0.73900
O1109       O  0.25355754  0.41963983  0.22640561    -0.74000
O1110       O  0.30694024  0.43666236  0.22090639    -0.74000
O1111       O  0.29889889  0.45423986  0.19414075    -0.74000
O1112       O  0.24482679  0.43578688  0.19896463    -0.73900
O1113       O  0.26586972  0.46794322  0.21240601    -0.73900
O1114       O  0.27806137  0.42264943  0.18032567    -0.74000
Ni1115     Ni  0.28038806  0.42775065  0.22457986     1.25400
Ni1116     Ni  0.27157666  0.44582723  0.19548974     1.25400
C1117       C  0.28330461  0.40651837  0.18875211     0.88300
C1118       C  0.26856211  0.46721014  0.23116337     0.88200
C1119       C  0.24061125  0.42409535  0.21338160     0.88200
C1120       C  0.31182263  0.44812895  0.20667555     0.88400
O1121       O  0.22032396  0.14625221  0.31923410    -0.73900
O1122       O  0.23532439  0.09848687  0.29215070    -0.73900
O1123       O  0.20103612  0.11326860  0.30701483    -0.74000
O1124       O  0.25391873  0.13232722  0.30414946    -0.74000
O1125       O  0.26099037  0.11840634  0.33327925    -0.74000
O1126       O  0.20750379  0.09834064  0.33576228    -0.73900
O1127       O  0.24218089  0.08450316  0.32128384    -0.73900
O1128       O  0.22628207  0.13151883  0.34822344    -0.74000
Ni1129     Ni  0.22742655  0.12296672  0.30455592     1.25400
Ni1130     Ni  0.23453586  0.10759442  0.33564451     1.25400
C1131       C  0.22114597  0.14670505  0.33819263     0.88300
C1132       C  0.24093956  0.08353422  0.30241050     0.88200
C1133       C  0.19539062  0.10304539  0.32189421     0.88200
C1134       C  0.26573070  0.12955971  0.31862374     0.88400
O1135       O  0.37673330  0.22751547  0.30059713    -0.73900
O1136       O  0.42413306  0.25651544  0.28719616    -0.73900
O1137       O  0.38996231  0.24632899  0.26797072    -0.74000
O1138       O  0.41006913  0.23792598  0.32014642    -0.74000
O1139       O  0.42494010  0.21017836  0.31006838    -0.74000
O1140       O  0.40415836  0.21834985  0.25757817    -0.73900
O1141       O  0.43810448  0.22838114  0.27697581    -0.73900
O1142       O  0.39152729  0.19959870  0.29089748    -0.74000
Ni1143     Ni  0.39978235  0.24313471  0.29429060     1.25400
Ni1144     Ni  0.41520218  0.21317205  0.28345748     1.25400
C1145       C  0.37656532  0.20865982  0.29811651     0.88300
C1146       C  0.43905332  0.24702846  0.28017840     0.88200
C1147       C  0.39316868  0.23351383  0.25438298     0.88200
C1148       C  0.42050049  0.22257124  0.32379290     0.88400
O1149       O  0.12499908  0.33194929  0.23129172    -0.73900
O1150       O  0.07720359  0.30310326  0.24243668    -0.73900
O1151       O  0.09410261  0.31865663  0.20946088    -0.74000
O1152       O  0.10850070  0.31613246  0.26405264    -0.74000
O1153       O  0.09391649  0.34531793  0.26940461    -0.74000
O1154       O  0.07727615  0.34656033  0.21498075    -0.73900
O1155       O  0.06168018  0.33156697  0.24873878    -0.73900
O1156       O  0.10873306  0.36043669  0.23525715    -0.74000
Ni1157     Ni  0.10170738  0.31641744  0.23662585     1.25400
Ni1158     Ni  0.08477292  0.34695457  0.24237675     1.25400
C1159       C  0.12461153  0.35095019  0.23123448     0.88300
C1160       C  0.06151642  0.31264540  0.24727288     0.88200
C1161       C  0.08351529  0.33304680  0.20320148     0.88200
C1162       C  0.10431517  0.33064372  0.27546838     0.88400
O1163       O  0.19608839  0.31294940  0.38934233    -0.73900
O1164       O  0.22826565  0.29858213  0.43430588    -0.73900
O1165       O  0.21622580  0.28032266  0.40040319    -0.74000
O1166       O  0.20845694  0.33142409  0.42257523    -0.74000
O1167       O  0.18102305  0.32111485  0.43777511    -0.74000
O1168       O  0.19010113  0.26872820  0.41694143    -0.73900
O1169       O  0.20107828  0.28860957  0.45012010    -0.73900
O1170       O  0.16960162  0.30088126  0.40490677    -0.74000
Ni1171     Ni  0.21325580  0.30617746  0.41114107     1.25400
Ni1172     Ni  0.18450640  0.29443297  0.42804206     1.25400
C1173       C  0.17753649  0.30897825  0.38974727     0.88300
C1174       C  0.21975766  0.29150758  0.44975939     0.88200
C1175       C  0.20439326  0.26622902  0.40470776     0.88200
C1176       C  0.19333956  0.33488717  0.43335682     0.88400
O1177       O  0.70345496  0.31245106  0.13846208    -0.73900
O1178       O  0.73774783  0.30027924  0.09423906    -0.73900
O1179       O  0.71610752  0.33197084  0.10599606    -0.74000
O1180       O  0.72544539  0.28075097  0.12761145    -0.74000
O1181       O  0.70034724  0.26831870  0.11011335    -0.74000
O1182       O  0.68988106  0.32060069  0.08944579    -0.73900
O1183       O  0.71153341  0.28921544  0.07748431    -0.73900
O1184       O  0.67807262  0.29958573  0.12170331    -0.74000
Ni1185     Ni  0.72166455  0.30672048  0.11714472     1.25400
Ni1186     Ni  0.69406579  0.29396880  0.09907309     1.25400
C1187       C  0.68507009  0.30787501  0.13724474     0.88300
C1188       C  0.72994839  0.29331344  0.07831883     0.88200
C1189       C  0.70139560  0.33487050  0.09450800     0.88200
C1190       C  0.71431170  0.26620434  0.12281857     0.88400
O1191       O  0.62536878  0.32860404  0.29022368    -0.73900
O1192       O  0.57640952  0.30126726  0.27969348    -0.73900
O1193       O  0.60786854  0.31358060  0.25770485    -0.74000
O1194       O  0.59449788  0.31594817  0.31255561    -0.74000
O1195       O  0.57820984  0.34429225  0.30790674    -0.74000
O1196       O  0.59444234  0.34342259  0.25312808    -0.73900
O1197       O  0.56194479  0.33038393  0.27397563    -0.73900
O1198       O  0.60975972  0.35755973  0.28718857    -0.74000
Ni1199     Ni  0.60149838  0.31377689  0.28521369     1.25400
Ni1200     Ni  0.58545909  0.34490388  0.28029629     1.25400
C1201       C  0.62549412  0.34760982  0.29046322     0.88300
C1202       C  0.56102738  0.31149031  0.27532161     0.88200
C1203       C  0.60443801  0.32856554  0.24672188     0.88200
C1204       C  0.58433245  0.33043532  0.31933394     0.88400
O1205       O  0.73040799  0.14541931  0.20793794    -0.73900
O1206       O  0.73801634  0.09592633  0.23525356    -0.73900
O1207       O  0.76181129  0.12607508  0.22309398    -0.74000
O1208       O  0.70627259  0.11571472  0.22018834    -0.74000
O1209       O  0.71062329  0.09918416  0.19187317    -0.74000
O1210       O  0.76601826  0.11209090  0.19339688    -0.73900
O1211       O  0.74328539  0.08089290  0.20628717    -0.73900
O1212       O  0.73322265  0.12967442  0.17898675    -0.74000
Ni1213     Ni  0.73397114  0.12125205  0.22268904     1.25400
Ni1214     Ni  0.73849334  0.10482836  0.19164477     1.25400
C1215       C  0.73049288  0.14560665  0.18893554     0.88300
C1216       C  0.74185568  0.08023832  0.22521351     0.88200
C1217       C  0.77279025  0.12176957  0.20828830     0.88200
C1218       C  0.69927433  0.10588997  0.20553184     0.88400
O1219       O  0.88237040  0.21670313  0.22901146    -0.73900
O1220       O  0.92590783  0.25109126  0.24296465    -0.73900
O1221       O  0.91429233  0.23091631  0.21014439    -0.74000
O1222       O  0.89280367  0.23703408  0.26178862    -0.74000
O1223       O  0.91085843  0.21171471  0.27289137    -0.74000
O1224       O  0.93102000  0.20415564  0.21985367    -0.73900
O1225       O  0.94324307  0.22458261  0.25222749    -0.73900
O1226       O  0.89936814  0.19088526  0.24060923    -0.74000
Ni1227     Ni  0.90330279  0.23494458  0.23570949     1.25400
Ni1228     Ni  0.92180606  0.20695034  0.24683286     1.25400
C1229       C  0.88383237  0.19809826  0.23258323     0.88300
C1230       C  0.94205348  0.24323217  0.24920760     0.88200
C1231       C  0.92547461  0.21618804  0.20622885     0.88200
C1232       C  0.89765346  0.22510780  0.27561703     0.88400
O1233       O  0.80446919  0.24497283  0.39051624    -0.73900
O1234       O  0.77752648  0.25691450  0.43934313    -0.73900
O1235       O  0.79047503  0.27833594  0.40780565    -0.74000
O1236       O  0.79122962  0.22343841  0.42174074    -0.74000
O1237       O  0.81968424  0.22808731  0.43783835    -0.74000
O1238       O  0.82016981  0.28249228  0.42165495    -0.73900
O1239       O  0.80661477  0.26204279  0.45408137    -0.73900
O1240       O  0.83338622  0.24817068  0.40612036    -0.74000
Ni1241     Ni  0.78984425  0.25080301  0.41434192     1.25400
Ni1242     Ni  0.82096005  0.25542767  0.43049801     1.25400
C1243       C  0.82343758  0.24443309  0.39044591     0.88300
C1244       C  0.78773832  0.26103694  0.45483686     0.88200
C1245       C  0.80550354  0.28916310  0.41167556     0.88200
C1246       C  0.80556417  0.21677266  0.43214175     0.88400
O1247       O  0.79130333  0.39981409  0.31637942    -0.73900
O1248       O  0.77788974  0.44359866  0.28229153    -0.73900
O1249       O  0.81020288  0.43220196  0.30321587    -0.74000
O1250       O  0.75907251  0.41040425  0.29516822    -0.74000
O1251       O  0.74710327  0.42793720  0.32052636    -0.74000
O1252       O  0.79948166  0.44867684  0.32981625    -0.73900
O1253       O  0.76742078  0.46054873  0.30867866    -0.73900
O1254       O  0.77883662  0.41652589  0.34205625    -0.74000
Ni1255     Ni  0.78496895  0.42096111  0.29828465     1.25400
Ni1256     Ni  0.77279479  0.43907979  0.32618157     1.25400
C1257       C  0.78707967  0.40105967  0.33486660     0.88300
C1258       C  0.77069010  0.45940357  0.29005466     0.88200
C1259       C  0.81349977  0.44339835  0.31811790     0.88200
C1260       C  0.74476517  0.41522800  0.30656244     0.88400
O1261       O  0.81131437  0.80042335  0.13054339    -0.73900
O1262       O  0.78242387  0.79018517  0.08252777    -0.73900
O1263       O  0.79376811  0.76865981  0.11487475    -0.74000
O1264       O  0.79988033  0.82243555  0.09895593    -0.74000
O1265       O  0.82784388  0.81481831  0.08314142    -0.74000
O1266       O  0.82192581  0.76042568  0.09971866    -0.73900
O1267       O  0.81065017  0.78230844  0.06733583    -0.73900
O1268       O  0.83949425  0.79326030  0.11487127    -0.74000
Ni1269     Ni  0.79579986  0.79567680  0.10716502     1.25400
Ni1270     Ni  0.82594871  0.78735454  0.09064984     1.25400
C1271       C  0.83015367  0.79831591  0.13055843     0.88300
C1272       C  0.79193769  0.78506707  0.06689173     0.88200
C1273       C  0.80725896  0.75599763  0.11095418     0.88200
C1274       C  0.81491669  0.82758368  0.08870622     0.88400
O1275       O  0.72487470  0.89686970  0.31354284    -0.73900
O1276       O  0.73682034  0.94419027  0.28410707    -0.73900
O1277       O  0.75676028  0.91059202  0.29455738    -0.74000
O1278       O  0.70461387  0.92968332  0.30302544    -0.74000
O1279       O  0.71420835  0.94480147  0.33084299    -0.74000
O1280       O  0.76708518  0.92513967  0.32241457    -0.73900
O1281       O  0.74666823  0.95886425  0.31204044    -0.73900
O1282       O  0.73427504  0.91184353  0.34149676    -0.74000
Ni1283     Ni  0.73047113  0.91990979  0.29778654     1.25400
Ni1284     Ni  0.74100958  0.93576870  0.32765907     1.25400
C1285       C  0.72760014  0.89661847  0.33235032     0.88300
C1286       C  0.74319565  0.95951792  0.29338345     0.88200
C1287       C  0.77019274  0.91376126  0.30746382     0.88200
C1288       C  0.70067637  0.93996543  0.31843782     0.88400
O1289       O  0.88242528  0.81648777  0.29262075    -0.73900
O1290       O  0.93076911  0.78776859  0.28293826    -0.73900
O1291       O  0.91440514  0.80666708  0.31460066    -0.74000
O1292       O  0.89802315  0.79742594  0.26133897    -0.74000
O1293       O  0.91259997  0.82544070  0.25164912    -0.74000
O1294       O  0.92959700  0.83451560  0.30540184    -0.73900
O1295       O  0.94519149  0.81593867  0.27351324    -0.73900
O1296       O  0.89760380  0.84450968  0.28388823    -0.74000
Ni1297     Ni  0.90595882  0.80103082  0.28817475     1.25400
Ni1298     Ni  0.92180973  0.83105380  0.27820034     1.25400
C1299       C  0.88227888  0.83530590  0.29003615     0.88300
C1300       C  0.94603876  0.79734427  0.27691844     0.88200
C1301       C  0.92432496  0.82223255  0.31887161     0.88200
C1302       C  0.90190581  0.81016695  0.24792165     0.88400
O1303       O  0.78800061  0.63755253  0.19792987    -0.73900
O1304       O  0.77308303  0.59017385  0.22570293    -0.73900
O1305       O  0.80751826  0.60553265  0.21204501    -0.74000
O1306       O  0.75378739  0.62245366  0.21194390    -0.74000
O1307       O  0.74905861  0.60799270  0.18253868    -0.74000
O1308       O  0.80275122  0.58941575  0.18353450    -0.73900
O1309       O  0.76794364  0.57501432  0.19674947    -0.73900
O1310       O  0.78417564  0.62176144  0.16911021    -0.74000
Ni1311     Ni  0.78074966  0.61444341  0.21294970     1.25400
Ni1312     Ni  0.77573955  0.59795306  0.18196846     1.25400
C1313       C  0.78864581  0.63735897  0.17893514     0.88300
C1314       C  0.76835244  0.57471690  0.21571531     0.88200
C1315       C  0.81400983  0.59481532  0.19783397     0.88200
C1316       C  0.74280458  0.61854103  0.19705906     0.88400
O1317       O  0.70490943  0.73468916  0.38512793    -0.73900
O1318       O  0.73227467  0.74595503  0.43377337    -0.73900
O1319       O  0.71489263  0.71345115  0.41761961    -0.74000
O1320       O  0.72220509  0.76680931  0.40052185    -0.74000
O1321       O  0.69373840  0.77566746  0.41471389    -0.74000
O1322       O  0.68651934  0.72178895  0.43229433    -0.73900
O1323       O  0.70372217  0.75451786  0.44792609    -0.73900
O1324       O  0.67629546  0.74257768  0.39961342    -0.74000
Ni1325     Ni  0.71962356  0.73995624  0.40886454     1.25400
Ni1326     Ni  0.68907306  0.74901157  0.42419898     1.25400
C1327       C  0.68610375  0.73683014  0.38443555     0.88300
C1328       C  0.72242391  0.75172736  0.44896819     0.88200
C1329       C  0.69943207  0.70873236  0.42745226     0.88200
C1330       C  0.70885172  0.77975857  0.40395642     0.88400
O1331       O  0.63172717  0.71240471  0.21941150    -0.73900
O1332       O  0.58656198  0.74371657  0.23496757    -0.73900
O1333       O  0.62054429  0.73124539  0.25293794    -0.74000
O1334       O  0.59858196  0.72525797  0.20145374    -0.74000
O1335       O  0.58337546  0.69743349  0.21073966    -0.74000
O1336       O  0.60421369  0.70453603  0.26346831    -0.73900
O1337       O  0.57095798  0.71599748  0.24384600    -0.73900
O1338       O  0.61621500  0.68540347  0.23042492    -0.74000
Ni1339     Ni  0.60987504  0.72918657  0.22691027     1.25400
Ni1340     Ni  0.59311560  0.69988441  0.23751475     1.25400
C1341       C  0.63128711  0.69367780  0.22256331     0.88300
C1342       C  0.57106373  0.73473612  0.24129452     0.88200
C1343       C  0.61637951  0.71880771  0.26655108     0.88200
C1344       C  0.58774531  0.71030002  0.19745758     0.88400
C1345       C  0.65367900  0.72417333  0.34593955     0.30300
C1346       C  0.63658564  0.71620624  0.33714325    -0.36000
C1347       C  0.63477665  0.71890265  0.31659507     0.16300
C1348       C  0.64868965  0.72904706  0.30561764     0.22100
C1349       C  0.66592226  0.73663293  0.31430803    -0.34200
C1350       C  0.66789560  0.73361631  0.33472268     0.16200
O1351       O  0.65814597  0.72396147  0.36497644    -0.26200
C1352       C  0.67562420  0.73299843  0.36580659     0.06000
C1353       C  0.68247331  0.73919858  0.34744377    -0.31100
O1354       O  0.64380984  0.73046328  0.28681579    -0.22900
C1355       C  0.62667802  0.72087917  0.28557191    -0.02900
C1356       C  0.62034026  0.71321317  0.30360983    -0.17300
H1357       H  0.62543219  0.70858070  0.34572975     0.20700
H1358       H  0.67697574  0.74444113  0.30575041     0.19100
H1359       H  0.69590249  0.74725356  0.34410413     0.19000
H1360       H  0.60699107  0.70494051  0.30670757     0.14900
C1361       C  0.69607808  0.63659212  0.20833244     0.30300
C1362       C  0.67923922  0.63891492  0.22016731    -0.36000
C1363       C  0.66823097  0.65616370  0.21696498     0.16300
C1364       C  0.67348112  0.67037040  0.20325220     0.22100
C1365       C  0.69016828  0.66786211  0.19111773    -0.34200
C1366       C  0.70106291  0.65040874  0.19411989     0.16200
O1367       O  0.70952416  0.62261995  0.21026602    -0.26200
C1368       C  0.72302334  0.62717252  0.19672304     0.06000
C1369       C  0.71856915  0.64429489  0.18622032    -0.31100
O1370       O  0.66143149  0.68577899  0.20346208    -0.22900
C1371       C  0.64822465  0.68114875  0.21732650    -0.02900
C1372       C  0.65170525  0.66290005  0.22613342    -0.17300
H1373       H  0.67531612  0.62829739  0.23150100     0.20700
H1374       H  0.69461638  0.67893994  0.18044092     0.19100
H1375       H  0.72780778  0.65207637  0.17570038     0.19000
H1376       H  0.64336614  0.65576868  0.23780649     0.14900
C1377       C  0.80683918  0.87881660  0.29747375     0.30300
C1378       C  0.81406730  0.86085624  0.28997531    -0.36000
C1379       C  0.83410957  0.85705514  0.29336210     0.16300
C1380       C  0.84632255  0.87025010  0.30309070     0.22100
C1381       C  0.83895346  0.88806432  0.31103546    -0.34200
C1382       C  0.81874012  0.89171594  0.30795310     0.16200
O1383       O  0.78862577  0.88530161  0.29569954    -0.26200
C1384       C  0.78861699  0.90247592  0.30536168     0.06000
C1385       C  0.80692666  0.90723396  0.31351258    -0.31100
O1386       O  0.86486775  0.86423034  0.30340894    -0.22900
C1387       C  0.86436440  0.84678468  0.29418383    -0.02900
C1388       C  0.84561127  0.84147451  0.28773406    -0.17300
H1389       H  0.80472046  0.85062844  0.28190938     0.20700
H1390       H  0.84835632  0.89842029  0.31886301     0.19100
H1391       H  0.81092836  0.92018317  0.32209134     0.19000
H1392       H  0.84130183  0.82849262  0.27934865     0.14900
C1393       C  0.71659783  0.85927773  0.36695868     0.30300
C1394       C  0.71149127  0.85106668  0.38545742    -0.36000
C1395       C  0.71116959  0.83023559  0.38645492     0.16300
C1396       C  0.71596235  0.81846897  0.37041796     0.22100
C1397       C  0.72058553  0.82662694  0.35191843    -0.34200
C1398       C  0.72053804  0.84731737  0.35084087     0.16200
O1399       O  0.71849528  0.87830380  0.36271154    -0.26200
C1400       C  0.72333476  0.87841142  0.34355040     0.06000
C1401       C  0.72467534  0.85955939  0.33540709    -0.31100
O1402       O  0.71580838  0.79948062  0.37470496    -0.22900
C1403       C  0.71048767  0.79885332  0.39364888    -0.02900
C1404       C  0.70718720  0.81754434  0.40178959    -0.17300
H1405       H  0.70821896  0.86025052  0.39819668     0.20700
H1406       H  0.72419762  0.81744351  0.33926744     0.19100
H1407       H  0.72874749  0.85548171  0.32043604     0.19000
H1408       H  0.70306530  0.82121699  0.41684509     0.14900
C1409       C  0.80655876  0.70668750  0.12792396     0.30300
C1410       C  0.80687405  0.68586549  0.12689939    -0.36000
C1411       C  0.80209062  0.67577915  0.14451008     0.16300
C1412       C  0.79773738  0.68550082  0.16199127     0.22100
C1413       C  0.79738884  0.70619552  0.16299964    -0.34200
C1414       C  0.80169681  0.71621008  0.14537657     0.16200
O1415       O  0.80969142  0.71924779  0.11316737    -0.26200
C1416       C  0.80639103  0.73690865  0.12137486     0.06000
C1417       C  0.80138360  0.73583783  0.14129355    -0.31100
O1418       O  0.79305432  0.67330999  0.17648760    -0.22900
C1419       C  0.79417558  0.65547935  0.16821010    -0.02900
C1420       C  0.79973906  0.65607956  0.14833114    -0.17300
H1421       H  0.81007485  0.67808684  0.11324013     0.20700
H1422       H  0.79344219  0.71396833  0.17646844     0.19100
H1423       H  0.79789922  0.74789454  0.15129974     0.19000
H1424       H  0.80134817  0.64381795  0.13810723     0.14900
C1425       C  0.86441119  0.80729617  0.16848490     0.30300
C1426       C  0.88215891  0.81390577  0.17714456    -0.36000
C1427       C  0.88433380  0.81018974  0.19751515     0.16300
C1428       C  0.87020551  0.80020569  0.20836320     0.22100
C1429       C  0.85242342  0.79387691  0.19980397    -0.34200
C1430       C  0.85003295  0.79806088  0.17965986     0.16200
O1431       O  0.85930345  0.80888976  0.14967323    -0.26200
C1432       C  0.84125510  0.80101450  0.14901609     0.06000
C1433       C  0.83469488  0.79414626  0.16723349    -0.31100
O1434       O  0.87506521  0.79836574  0.22712143    -0.22900
C1435       C  0.89239067  0.80755063  0.22854252    -0.02900
C1436       C  0.89893556  0.81530535  0.21059590    -0.17300
H1437       H  0.89337268  0.82154671  0.16865079     0.20700
H1438       H  0.84111676  0.78642137  0.20834458     0.19100
H1439       H  0.82095155  0.78665886  0.17061651     0.19000
H1440       H  0.91225816  0.82369826  0.20771553     0.14900
C1441       C  0.76514246  0.49575964  0.25327964     0.30300
C1442       C  0.76690224  0.50412602  0.23432581    -0.36000
C1443       C  0.76409546  0.52470599  0.23315254     0.16300
C1444       C  0.75995765  0.53628487  0.24951625     0.22100
C1445       C  0.75763026  0.52785087  0.26834090    -0.34200
C1446       C  0.76039952  0.50730310  0.26949751     0.16200
O1447       O  0.76894717  0.47718718  0.25813335    -0.26200
C1448       C  0.76645868  0.47685104  0.27769623     0.06000
C1449       C  0.76097245  0.49513521  0.28549797    -0.31100
O1450       O  0.76017763  0.55539856  0.24546762    -0.22900
C1451       C  0.76419144  0.55608606  0.22618671    -0.02900
C1452       C  0.76658212  0.53742786  0.21771117    -0.17300
H1453       H  0.77106126  0.49535924  0.22155120     0.20700
H1454       H  0.75480745  0.53680999  0.28134903     0.19100
H1455       H  0.75874981  0.49910529  0.30088383     0.19000
H1456       H  0.77096010  0.53386361  0.20269733     0.14900
C1457       C  0.80478780  0.35968938  0.36081145     0.30300
C1458       C  0.81689012  0.34325387  0.36474607    -0.36000
C1459       C  0.81170415  0.33189022  0.38137583     0.16300
C1460       C  0.79549310  0.33618152  0.39306080     0.22100
C1461       C  0.78377627  0.35289808  0.38947060    -0.34200
C1462       C  0.78914119  0.36439781  0.37307992     0.16200
O1463       O  0.80619388  0.37178832  0.34550165    -0.26200
C1464       C  0.79142734  0.38453270  0.34827508     0.06000
C1465       C  0.78045604  0.38072502  0.36524478    -0.31100
O1466       O  0.79179020  0.32222787  0.40618546    -0.22900
C1467       C  0.80617205  0.30912786  0.40331881    -0.02900
C1468       C  0.81905637  0.31438237  0.38815561    -0.17300
H1469       H  0.82908183  0.33923600  0.35516489     0.20700
H1470       H  0.77091683  0.35629303  0.39839353     0.19100
H1471       H  0.76758102  0.38855585  0.37067820     0.19000
H1472       H  0.83090359  0.30563537  0.38183884     0.14900
C1473       C  0.86244964  0.23102331  0.31300796     0.30300
C1474       C  0.84358782  0.23514968  0.32062402    -0.36000
C1475       C  0.84204382  0.23576101  0.34130888     0.16300
C1476       C  0.85803861  0.23272378  0.35362484     0.22100
C1477       C  0.87683962  0.22816484  0.34599530    -0.34200
C1478       C  0.87834439  0.22731627  0.32527328     0.16200
O1479       O  0.86733601  0.23067829  0.29415555    -0.26200
C1480       C  0.88652578  0.22637180  0.29423138     0.06000
C1481       C  0.89421969  0.22391141  0.31317623    -0.31100
O1482       O  0.85350183  0.23515576  0.37245882    -0.22900
C1483       C  0.83431677  0.23956847  0.37223051    -0.02900
C1484       C  0.82634193  0.24003333  0.35325015    -0.17300
H1485       H  0.83107855  0.23806655  0.31106621     0.20700
H1486       H  0.88947238  0.22581037  0.35554271     0.19100
H1487       H  0.90934070  0.22080250  0.31738644     0.19000
H1488       H  0.81138086  0.24367263  0.34888379     0.14900
C1489       C  0.74619573  0.04028510  0.25845404     0.30300
C1490       C  0.74704204  0.03095625  0.27703676    -0.36000
C1491       C  0.74712496  0.01013702  0.27686184     0.16300
C1492       C  0.74619933  0.99918273  0.25961086     0.22100
C1493       C  0.74563662  0.00851906  0.24100131    -0.34200
C1494       C  0.74574690  0.02935456  0.24116798     0.16200
O1495       O  0.74516346  0.05956831  0.25521198    -0.26200
C1496       C  0.74423752  0.06107583  0.23555329     0.06000
C1497       C  0.74463331  0.04272630  0.22606317    -0.31100
O1498       O  0.74517933  0.97990487  0.26298410    -0.22900
C1499       C  0.74574255  0.97845895  0.28267143    -0.02900
C1500       C  0.74704104  0.99682365  0.29203220    -0.17300
H1501       H  0.74724523  0.03934780  0.29071097     0.20700
H1502       H  0.74477266  0.00012955  0.22735224     0.19100
H1503       H  0.74361264  0.03968007  0.21034731     0.19000
H1504       H  0.74701318  0.99993652  0.30776916     0.14900
C1505       C  0.82024328  0.13914829  0.21873441     0.30300
C1506       C  0.83742261  0.14153337  0.23017465    -0.36000
C1507       C  0.84826091  0.15895140  0.22684641     0.16300
C1508       C  0.84249696  0.17317743  0.21336778     0.22100
C1509       C  0.82564381  0.17052740  0.20154000    -0.34200
C1510       C  0.81496500  0.15298431  0.20465769     0.16200
O1511       O  0.80665608  0.12527953  0.22105461    -0.26200
C1512       C  0.79284793  0.12994644  0.20781448     0.06000
C1513       C  0.79726451  0.14698956  0.19718951    -0.31100
O1514       O  0.85405229  0.18894268  0.21365990    -0.22900
C1515       C  0.86755391  0.18463365  0.22732145    -0.02900
C1516       C  0.86476587  0.16611580  0.23590798    -0.17300
H1517       H  0.84161785  0.13094718  0.24143574     0.20700
H1518       H  0.82080443  0.18168105  0.19111684     0.19100
H1519       H  0.78782533  0.15489124  0.18694026     0.19000
H1520       H  0.87337608  0.15919326  0.24750407     0.14900
C1521       C  0.67393253  0.36565971  0.29280942     0.30300
C1522       C  0.69429182  0.36570381  0.28908272    -0.36000
C1523       C  0.70461944  0.38253562  0.29542272     0.16300
C1524       C  0.69570011  0.39820500  0.30508206     0.22100
C1525       C  0.67520559  0.39833878  0.30847555    -0.34200
C1526       C  0.66478581  0.38157162  0.30185142     0.16200
O1527       O  0.66146874  0.35138407  0.28812623    -0.26200
C1528       C  0.64404336  0.35831852  0.29400487     0.06000
C1529       C  0.64516080  0.37708423  0.30252014    -0.31100
O1530       O  0.70849844  0.41204916  0.31038737    -0.22900
C1531       C  0.72571254  0.40518822  0.30370656    -0.02900
C1532       C  0.72412244  0.38698111  0.29420702    -0.17300
H1533       H  0.70159094  0.35344245  0.28177057     0.20700
H1534       H  0.66791203  0.41059429  0.31579914     0.19100
H1535       H  0.63323217  0.38606737  0.30832286     0.19000
H1536       H  0.73579317  0.37806704  0.28779196     0.14900
C1537       C  0.72761349  0.19469374  0.17201918     0.30300
C1538       C  0.72983360  0.21533763  0.17296176    -0.36000
C1539       C  0.72459158  0.22585025  0.15582827     0.16300
C1540       C  0.71728243  0.21679260  0.13900126     0.22100
C1541       C  0.71537950  0.19609468  0.13794522    -0.34200
C1542       C  0.72094609  0.18553359  0.15498198     0.16200
O1543       O  0.73156350  0.18198609  0.18633832    -0.26200
C1544       C  0.72762181  0.16441363  0.17828748     0.06000
C1545       C  0.72107636  0.16571854  0.15877704    -0.31100
O1546       O  0.71260939  0.22963942  0.12498307    -0.22900
C1547       C  0.71735468  0.24709925  0.13285728    -0.02900
C1548       C  0.72495673  0.24559803  0.15195189    -0.17300
H1549       H  0.73526045  0.22270006  0.18613978     0.20700
H1550       H  0.70990776  0.18873683  0.12478566     0.19100
H1551       H  0.71689164  0.15378533  0.14890282     0.19000
H1552       H  0.72960122  0.25744008  0.16173389     0.14900
C1553       C  0.65932210  0.32488226  0.17920411     0.30300
C1554       C  0.65580953  0.33640226  0.19619189    -0.36000
C1555       C  0.63803648  0.33262619  0.20628737     0.16300
C1556       C  0.62484336  0.31817399  0.20037922     0.22100
C1557       C  0.62818292  0.30691196  0.18320876    -0.34200
C1558       C  0.64575119  0.31095401  0.17291734     0.16200
O1559       O  0.67516402  0.32557728  0.16774619    -0.26200
C1560       C  0.67153042  0.31207916  0.15380972     0.06000
C1561       C  0.65342189  0.30260725  0.15625678    -0.31100
O1562       O  0.61031967  0.31563035  0.21321014    -0.22900
C1563       C  0.61386447  0.32910925  0.22717124    -0.02900
C1564       C  0.63091903  0.34006593  0.22364958    -0.17300
H1565       H  0.66636189  0.34728226  0.20139360     0.20700
H1566       H  0.61803147  0.29545446  0.17846634     0.19100
H1567       H  0.64698464  0.29104694  0.14718613     0.19000
H1568       H  0.63798474  0.35066312  0.23340640     0.14900
C1569       C  0.01247515  0.29600446  0.25292017     0.30300
C1570       C  0.99169926  0.29758985  0.25304044    -0.36000
C1571       C  0.98110377  0.27964351  0.25334854     0.16300
C1572       C  0.99039264  0.26146242  0.25385276     0.22100
C1573       C  0.01108592  0.25988396  0.25376939    -0.34200
C1574       C  0.02162896  0.27775221  0.25315021     0.16200
O1575       O  0.02527329  0.31074462  0.25144708    -0.26200
C1576       C  0.04283309  0.30178600  0.25061173     0.06000
C1577       C  0.04141897  0.28125478  0.25161384    -0.31100
O1578       O  0.97781932  0.24657002  0.25318586    -0.22900
C1579       C  0.96014279  0.25516689  0.25207419    -0.02900
C1580       C  0.96124586  0.27578824  0.25212331    -0.17300
H1581       H  0.98432459  0.31179054  0.25230946     0.20700
H1582       H  0.01845498  0.24565858  0.25356628     0.19100
H1583       H  0.05322212  0.27046651  0.25072866     0.19000
H1584       H  0.94926768  0.28632771  0.25081275     0.14900
C1585       C  0.12163911  0.32021753  0.32301526     0.30300
C1586       C  0.12333935  0.30937763  0.34065168    -0.36000
C1587       C  0.14036193  0.31301161  0.35197672     0.16300
C1588       C  0.15488938  0.32617653  0.34624851     0.22100
C1589       C  0.15301663  0.33727085  0.32878954    -0.34200
C1590       C  0.13583892  0.33387911  0.31761970     0.16200
O1591       O  0.10783672  0.31798103  0.30935604    -0.26200
C1592       C  0.11296738  0.33081628  0.29533607     0.06000
C1593       C  0.13025143  0.34106984  0.29965232    -0.31100
O1594       O  0.17002139  0.32650869  0.35861835    -0.22900
C1595       C  0.16496963  0.31357273  0.37257979    -0.02900
C1596       C  0.14664630  0.30480014  0.36924684    -0.17300
H1597       H  0.11241101  0.29850857  0.34499263     0.20700
H1598       H  0.16435517  0.34752142  0.32402399     0.19100
H1599       H  0.13832916  0.35115497  0.29018218     0.19000
H1600       H  0.13924139  0.29368236  0.37808640     0.14900
C1601       C  0.52014139  0.27951288  0.27072392     0.30300
C1602       C  0.51012154  0.26129298  0.26993740    -0.36000
C1603       C  0.48942693  0.26215005  0.27173364     0.16300
C1604       C  0.47923754  0.27968212  0.27426752     0.22100
C1605       C  0.48921895  0.29791944  0.27459590    -0.34200
C1606       C  0.50988680  0.29707890  0.27266725     0.16200
O1607       O  0.53953563  0.28211321  0.27086542    -0.26200
C1608       C  0.54170516  0.30165109  0.27263852     0.06000
C1609       C  0.52374187  0.31166842  0.27367799    -0.31100
O1610       O  0.46009109  0.27690302  0.27718241    -0.22900
C1611       C  0.45793967  0.25731882  0.27627644    -0.02900
C1612       C  0.47569773  0.24743757  0.27278740    -0.17300
H1613       H  0.51794930  0.24737035  0.26866934     0.20700
H1614       H  0.48147628  0.31176765  0.27683753     0.19100
H1615       H  0.52128803  0.32735096  0.27594386     0.19000
H1616       H  0.47823732  0.23162517  0.27204585     0.14900
C1617       C  0.30170179  0.16637448  0.31520262     0.30300
C1618       C  0.30847680  0.18573754  0.31191088    -0.36000
C1619       C  0.32894151  0.18794658  0.30964672     0.16300
C1620       C  0.34181518  0.17211396  0.31033236     0.22100
C1621       C  0.33505757  0.15276239  0.31404694    -0.34200
C1622       C  0.31456252  0.15057010  0.31656665     0.16200
O1623       O  0.28309117  0.16088149  0.31632539    -0.26200
C1624       C  0.28391937  0.14136898  0.31884200     0.06000
C1625       C  0.30313125  0.13403700  0.31924868    -0.31100
O1626       O  0.36019732  0.17738295  0.30653152    -0.22900
C1627       C  0.35913249  0.19686610  0.30364474    -0.02900
C1628       C  0.34005395  0.20429747  0.30552871    -0.17300
H1629       H  0.29841928  0.19814003  0.31068018     0.20700
H1630       H  0.34503168  0.14024071  0.31445560     0.19100
H1631       H  0.30787814  0.11876295  0.32018412     0.19000
H1632       H  0.33503639  0.21937112  0.30344118     0.14900
C1633       C  0.21734876  0.19525083  0.35528833     0.30300
C1634       C  0.22036680  0.21573058  0.35479706    -0.36000
C1635       C  0.21463513  0.22612110  0.37179056     0.16300
C1636       C  0.20616389  0.21712261  0.38807390     0.22100
C1637       C  0.20351109  0.19652666  0.38872402    -0.34200
C1638       C  0.20955719  0.18605539  0.37180451     0.16200
O1639       O  0.22178750  0.18268667  0.34104852    -0.26200
C1640       C  0.21701035  0.16519738  0.34861904     0.06000
C1641       C  0.20947926  0.16631195  0.36775533    -0.31100
O1642       O  0.20128635  0.22994405  0.40203278    -0.22900
C1643       C  0.20708006  0.24723508  0.39462378    -0.02900
C1644       C  0.21556264  0.24572530  0.37594825    -0.17300
H1645       H  0.22677805  0.22304823  0.34207011     0.20700
H1646       H  0.19720370  0.18919486  0.40149122     0.19100
H1647       H  0.20478974  0.15431557  0.37727782     0.19000
H1648       H  0.22115905  0.25748175  0.36661200     0.14900
C1649       C  0.20125964  0.39264941  0.22480103     0.30300
C1650       C  0.19274694  0.37625281  0.23414823    -0.36000
C1651       C  0.17303343  0.37230580  0.22942800     0.16300
C1652       C  0.16214849  0.38397275  0.21670298     0.22100
C1653       C  0.17084299  0.40031013  0.20697612    -0.34200
C1654       C  0.19086735  0.40407722  0.21145795     0.16200
O1655       O  0.21953817  0.39868546  0.22723059    -0.26200
C1656       C  0.22129374  0.41413143  0.21519600     0.06000
C1657       C  0.20390760  0.41822174  0.20481099    -0.31100
O1658       O  0.14354945  0.37800188  0.21540172    -0.22900
C1659       C  0.14283058  0.36209599  0.22710246    -0.02900
C1660       C  0.16076169  0.35782128  0.23607535    -0.17300
H1661       H  0.20098162  0.36717807  0.24445643     0.20700
H1662       H  0.16258069  0.40945094  0.19675436     0.19100
H1663       H  0.20130775  0.42975788  0.19401287     0.19000
H1664       H  0.16403079  0.34619386  0.24659975     0.14900
C1665       C  0.28397893  0.35895781  0.16843061     0.30300
C1666       C  0.27953092  0.33875960  0.16775440    -0.36000
C1667       C  0.28552747  0.32869798  0.15067195     0.16300
C1668       C  0.29567905  0.33762647  0.13535778     0.22100
C1669       C  0.29980597  0.35806420  0.13585729    -0.34200
C1670       C  0.29336871  0.36831468  0.15287201     0.16200
O1671       O  0.27970279  0.37106278  0.18310971    -0.26200
C1672       C  0.28608578  0.38855287  0.17684751     0.06000
C1673       C  0.29459053  0.38785379  0.15805509    -0.31100
O1674       O  0.30064809  0.32487510  0.12125812    -0.22900
C1675       C  0.29310240  0.30778519  0.12760405    -0.02900
C1676       C  0.28351258  0.30939080  0.14572131    -0.17300
H1677       H  0.27190874  0.33137636  0.17975387     0.20700
H1678       H  0.30749220  0.36542917  0.12389422     0.19100
H1679       H  0.30086622  0.39991831  0.14959676     0.19000
H1680       H  0.27663407  0.29776961  0.15434585     0.14900
C1681       C  0.36085625  0.24429705  0.21537507     0.30300
C1682       C  0.34344365  0.25170813  0.20687501    -0.36000
C1683       C  0.34050437  0.24730284  0.18679704     0.16300
C1684       C  0.35404965  0.23681101  0.17565632     0.22100
C1685       C  0.37137933  0.22914505  0.18424751    -0.34200
C1686       C  0.37408801  0.23313967  0.20450848     0.16200
O1687       O  0.36622758  0.24629184  0.23402210    -0.26200
C1688       C  0.38298491  0.23605703  0.23529958     0.06000
C1689       C  0.38859959  0.22745054  0.21740289    -0.31100
O1690       O  0.34863331  0.23514489  0.15692913    -0.22900
C1691       C  0.33118384  0.24426391  0.15624787    -0.02900
C1692       C  0.32534000  0.25202666  0.17439432    -0.17300
H1693       H  0.33282473  0.26016535  0.21539161     0.20700
H1694       H  0.38193129  0.22057232  0.17576626     0.19100
H1695       H  0.40135416  0.21824347  0.21441206     0.19000
H1696       H  0.31218045  0.26051688  0.17774599     0.14900
C1697       C  0.25128319  0.25739085  0.99124404     0.30300
C1698       C  0.26937780  0.25753868  0.00140832    -0.36000
C1699       C  0.26823356  0.25890866  0.02213114     0.16300
C1700       C  0.25052908  0.25970306  0.03227357     0.22100
C1701       C  0.23242040  0.25974279  0.02208828    -0.34200
C1702       C  0.23357408  0.25871702  0.00132501     0.16200
O1703       O  0.24886208  0.25559229  0.97189905    -0.26200
C1704       C  0.22933422  0.25605983  0.96952250     0.06000
C1705       C  0.21910304  0.25804520  0.98732445    -0.31100
O1706       O  0.25297548  0.26001856  0.05171471    -0.22900
C1707       C  0.27253045  0.25977278  0.05399949    -0.02900
C1708       C  0.28272044  0.25911536  0.03609256    -0.17300
H1709       H  0.28337616  0.25647101  0.99371384     0.20700
H1710       H  0.21840840  0.26033866  0.02980704     0.19100
H1711       H  0.20326891  0.25821550  0.98964862     0.19000
H1712       H  0.29852900  0.25822994  0.03375033     0.14900
C1713       C  0.20985474  0.35582271  0.86124561     0.30300
C1714       C  0.20410354  0.34842833  0.87985921    -0.36000
C1715       C  0.20643778  0.32793724  0.88265523     0.16300
C1716       C  0.21433917  0.31576162  0.86824638     0.22100
C1717       C  0.21970227  0.32306208  0.84956488    -0.34200
C1718       C  0.21693068  0.34339498  0.84662359     0.16200
O1719       O  0.20963249  0.37453743  0.85561388    -0.26200
C1720       C  0.21619632  0.37395938  0.83700832     0.06000
C1721       C  0.22084554  0.35496724  0.83058964    -0.31100
O1722       O  0.21577511  0.29723802  0.87406976    -0.22900
C1723       C  0.20839939  0.29734510  0.89233730    -0.02900
C1724       C  0.20217264  0.31602163  0.89848161    -0.17300
H1725       H  0.19831040  0.35798558  0.89136196     0.20700
H1726       H  0.22567157  0.31353384  0.83812496     0.19100
H1727       H  0.22708128  0.35050642  0.81650166     0.19000
H1728       H  0.19564164  0.32018508  0.91251960     0.14900
C1729       C  0.33296355  0.35815859  0.79512290     0.30300
C1730       C  0.31249072  0.35750964  0.79267027    -0.36000
C1731       C  0.30248439  0.37519921  0.79638036     0.16300
C1732       C  0.31178584  0.39232836  0.80261858     0.22100
C1733       C  0.33240768  0.39305287  0.80483934    -0.34200
C1734       C  0.34253601  0.37538766  0.80064443     0.16200
O1735       O  0.34519263  0.34342872  0.79176257    -0.26200
C1736       C  0.36286804  0.35133933  0.79486551     0.06000
C1737       C  0.36221951  0.37119533  0.80035933    -0.31100
O1738       O  0.29922351  0.40701554  0.80557586    -0.22900
C1739       C  0.28187981  0.39910891  0.80069716    -0.02900
C1740       C  0.28304223  0.37946582  0.79482777    -0.17300
H1741       H  0.30492073  0.34421130  0.78787998     0.20700
H1742       H  0.34001681  0.40645778  0.80923957     0.19100
H1743       H  0.37444924  0.38108285  0.80340696     0.19000
H1744       H  0.27115005  0.36966759  0.79041094     0.14900
C1745       C  0.25628898  0.28041780  0.52861605     0.30300
C1746       C  0.23784500  0.27874196  0.51929656    -0.36000
C1747       C  0.23776955  0.28123513  0.49867530     0.16300
C1748       C  0.25463734  0.28516595  0.48785794     0.22100
C1749       C  0.27320049  0.28627239  0.49712293    -0.34200
C1750       C  0.27328805  0.28370926  0.51778027     0.16200
O1751       O  0.25948299  0.28050302  0.54791438    -0.26200
C1752       C  0.27884324  0.28357531  0.54946460     0.06000
C1753       C  0.28820917  0.28549915  0.53119653    -0.31100
O1754       O  0.25079773  0.28884492  0.46900381    -0.22900
C1755       C  0.23122573  0.28706509  0.46776934    -0.02900
C1756       C  0.22242667  0.28217567  0.48574157    -0.17300
H1757       H  0.22436258  0.27651627  0.52763695     0.20700
H1758       H  0.28651735  0.28971691  0.48893438     0.19100
H1759       H  0.30356825  0.28895642  0.52830708     0.19000
H1760       H  0.20683729  0.28059261  0.48900889     0.14900
C1761       C  0.35931757  0.31503344  0.66969345     0.30300
C1762       C  0.37776344  0.32037097  0.67771611    -0.36000
C1763       C  0.37945879  0.31894123  0.69840235     0.16300
C1764       C  0.36409623  0.31242005  0.71017449     0.22100
C1765       C  0.34556390  0.30769097  0.70225445    -0.34200
C1766       C  0.34380250  0.30937674  0.68170535     0.16200
O1767       O  0.35478691  0.31389373  0.65072178    -0.26200
C1768       C  0.33605857  0.30779384  0.65071518     0.06000
C1769       C  0.32839575  0.30494014  0.66956022    -0.31100
O1770       O  0.36912719  0.31088471  0.72888297    -0.22900
C1771       C  0.38785352  0.31678499  0.72930095    -0.02900
C1772       C  0.39511498  0.32224573  0.71081475    -0.17300
H1773       H  0.39004165  0.32482096  0.66845736     0.20700
H1774       H  0.33349621  0.30257083  0.71144878     0.19100
H1775       H  0.31394524  0.29938599  0.67363597     0.19000
H1776       H  0.40982650  0.32729107  0.70704494     0.14900
C1777       C  0.14631897  0.22162855  0.80856746     0.30300
C1778       C  0.16490748  0.22580375  0.81667326    -0.36000
C1779       C  0.16590078  0.22612750  0.83734721     0.16300
C1780       C  0.14962710  0.22292745  0.84926217     0.22100
C1781       C  0.13106254  0.21826403  0.84112154    -0.34200
C1782       C  0.13013202  0.21759445  0.82035331     0.16200
O1783       O  0.14199500  0.22150076  0.78961604    -0.26200
C1784       C  0.12290080  0.21694133  0.78911136     0.06000
C1785       C  0.11465204  0.21415315  0.80776980    -0.31100
O1786       O  0.15370268  0.22539945  0.86820567    -0.22900
C1787       C  0.17287427  0.22987755  0.86834136    -0.02900
C1788       C  0.18128051  0.23037880  0.84959494    -0.17300
H1789       H  0.17762788  0.22896401  0.80747588     0.20700
H1790       H  0.11820117  0.21572270  0.85030920     0.19100
H1791       H  0.09943763  0.21086865  0.81148397     0.19000
H1792       H  0.19629400  0.23420129  0.84556685     0.14900
C1793       C  0.19395682  0.13735791  0.70461714     0.30300
C1794       C  0.17491706  0.13731884  0.71282519    -0.36000
C1795       C  0.16542057  0.15575541  0.71388018     0.16300
C1796       C  0.17393579  0.17310062  0.70724046     0.22100
C1797       C  0.19284743  0.17309794  0.69870169    -0.34200
C1798       C  0.20238294  0.15465316  0.69769623     0.16200
O1799       O  0.20639132  0.12227132  0.70434405    -0.26200
C1800       C  0.22284718  0.12995588  0.69681465     0.06000
C1801       C  0.22121251  0.14999490  0.69244716    -0.31100
O1802       O  0.16270971  0.18877584  0.71058965    -0.22900
C1803       C  0.14681085  0.18130401  0.71948181    -0.02900
C1804       C  0.14770159  0.16085862  0.72183910    -0.17300
H1805       H  0.16829741  0.12399240  0.71875170     0.20700
H1806       H  0.19993564  0.18662367  0.69386489     0.19100
H1807       H  0.23279474  0.16000842  0.68773457     0.19000
H1808       H  0.13690950  0.15118452  0.72865097     0.14900
C1809       C  0.29829847  0.17872242  0.64744116     0.30300
C1810       C  0.30421947  0.18753582  0.62950355    -0.36000
C1811       C  0.30377010  0.20835058  0.62900943     0.16300
C1812       C  0.29751908  0.21951622  0.64497787     0.22100
C1813       C  0.29198888  0.21078161  0.66291716    -0.34200
C1814       C  0.29278493  0.19012124  0.66350929     0.16200
O1815       O  0.29699100  0.15956320  0.65115014    -0.26200
C1816       C  0.29090433  0.15883618  0.66991529     0.06000
C1817       C  0.28813270  0.17739428  0.67834240    -0.31100
O1818       O  0.29711551  0.23854949  0.64112765    -0.22900
C1819       C  0.30352211  0.23980767  0.62257884    -0.02900
C1820       C  0.30809486  0.22151659  0.61421339    -0.17300
H1821       H  0.30864764  0.17879679  0.61680331     0.20700
H1822       H  0.28716660  0.21951105  0.67548486     0.19100
H1823       H  0.28287522  0.18095115  0.69307397     0.19000
H1824       H  0.31310887  0.21837714  0.59931061     0.14900
C1825       C  0.78066537  0.28776647  0.00661613     0.30300
C1826       C  0.78286509  0.28993338  0.02724633    -0.36000
C1827       C  0.76532854  0.28957192  0.03842198     0.16300
C1828       C  0.74700360  0.28699766  0.02980806     0.22100
C1829       C  0.74480282  0.28494366  0.00925468    -0.34200
C1830       C  0.76224499  0.28554178  0.99811426     0.16200
O1831       O  0.79491112  0.28846245  0.99326398    -0.26200
C1832       C  0.78544142  0.28680313  0.97602490     0.06000
C1833       C  0.76508588  0.28497951  0.97815162    -0.31100
O1834       O  0.73253499  0.28751702  0.04280756    -0.22900
C1835       C  0.74154399  0.29059468  0.06005910    -0.02900
C1836       C  0.76201535  0.29205933  0.05828705    -0.17300
H1837       H  0.79718743  0.29214188  0.03404627     0.20700
H1838       H  0.73042217  0.28338406  0.00239395     0.19100
H1839       H  0.75398792  0.28387988  0.96664765     0.19000
H1840       H  0.77276893  0.29487234  0.06982567     0.14900
C1841       C  0.98696733  0.26669475  0.74862621     0.30300
C1842       C  0.99619306  0.24807443  0.74731233    -0.36000
C1843       C  0.01699475  0.24813345  0.74780942     0.16300
C1844       C  0.02799141  0.26530730  0.74921617     0.22100
C1845       C  0.01877613  0.28383499  0.75083400    -0.34200
C1846       C  0.99803438  0.28375879  0.75059812     0.16200
O1847       O  0.96775704  0.27033600  0.74748998    -0.26200
C1848       C  0.96657772  0.28998800  0.74904544     0.06000
C1849       C  0.98496163  0.29901510  0.75109654    -0.31100
O1850       O  0.04723603  0.26205953  0.74822470    -0.22900
C1851       C  0.04864146  0.24248951  0.74646190    -0.02900
C1852       C  0.03029346  0.23306924  0.74620578    -0.17300
H1853       H  0.98778125  0.23453752  0.74564075     0.20700
H1854       H  0.02720022  0.29742884  0.75182707     0.19100
H1855       H  0.98826107  0.31468102  0.75196421     0.19000
H1856       H  0.02721514  0.21744599  0.74431541     0.14900
C1857       C  0.87033279  0.30771346  0.81340567     0.30300
C1858       C  0.85192184  0.30299217  0.82167355    -0.36000
C1859       C  0.85059686  0.30440184  0.84232157     0.16300
C1860       C  0.86641833  0.30972307  0.85409555     0.22100
C1861       C  0.88479107  0.31480612  0.84577647    -0.34200
C1862       C  0.88601721  0.31374610  0.82502916     0.16200
O1863       O  0.87473467  0.30736952  0.79442976    -0.26200
C1864       C  0.89337974  0.31355627  0.79375324     0.06000
C1865       C  0.90120304  0.31788821  0.81233193    -0.31100
O1866       O  0.86204485  0.30919267  0.87313676    -0.22900
C1867       C  0.84310875  0.30377194  0.87348651    -0.02900
C1868       C  0.83517924  0.30072501  0.85474243    -0.17300
H1869       H  0.83949227  0.29850803  0.81261699     0.20700
H1870       H  0.89723916  0.31922781  0.85483549     0.19100
H1871       H  0.91587117  0.32320912  0.81591118     0.19000
H1872       H  0.82040502  0.29590224  0.85089470     0.14900
C1873       C  0.81512231  0.21412448  0.88788736     0.30300
C1874       C  0.82120917  0.20280828  0.87152360    -0.36000
C1875       C  0.80895821  0.18685518  0.86635161     0.16300
C1876       C  0.79218109  0.18198593  0.87691895     0.22100
C1877       C  0.78604624  0.19333257  0.89324416    -0.34200
C1878       C  0.79802637  0.20959639  0.89810095     0.16200
O1879       O  0.82315821  0.23089474  0.89387756    -0.26200
C1880       C  0.81103769  0.23723841  0.90804524     0.06000
C1881       C  0.79508731  0.22465316  0.91123462    -0.31100
O1882       O  0.78280736  0.16661443  0.86933118    -0.22900
C1883       C  0.79350515  0.16183415  0.85347757    -0.02900
C1884       C  0.80990781  0.17394807  0.85083349    -0.17300
H1885       H  0.83412867  0.20669224  0.86290520     0.20700
H1886       H  0.77248376  0.19014756  0.90112970     0.19100
H1887       H  0.78243964  0.22703220  0.92077292     0.19000
H1888       H  0.82097658  0.17320833  0.83927560     0.14900
C1889       C  0.73990432  0.26444864  0.52828110     0.30300
C1890       C  0.73757688  0.26675773  0.50776649    -0.36000
C1891       C  0.75490916  0.26586042  0.49644370     0.16300
C1892       C  0.77334585  0.26313159  0.50474856     0.22100
C1893       C  0.77568311  0.26081208  0.52533465    -0.34200
C1894       C  0.75826510  0.26147546  0.53667590     0.16200
O1895       O  0.72551922  0.26376381  0.54139068    -0.26200
C1896       C  0.73464915  0.26022029  0.55847968     0.06000
C1897       C  0.75508964  0.25864707  0.55649085    -0.31100
O1898       O  0.78741427  0.26187385  0.49124482    -0.22900
C1899       C  0.77783153  0.26370078  0.47408818    -0.02900
C1900       C  0.75756601  0.26620628  0.47643697    -0.17300
H1901       H  0.72316277  0.26855986  0.50104608     0.20700
H1902       H  0.78999724  0.25812079  0.53196632     0.19100
H1903       H  0.76589870  0.25534121  0.56783401     0.19000
H1904       H  0.74637026  0.26741125  0.46504532     0.14900
C1905       C  0.81874994  0.39222154  0.70683054     0.30300
C1906       C  0.82963432  0.37555936  0.70072031    -0.36000
C1907       C  0.84557093  0.37011505  0.71289178     0.16300
C1908       C  0.85076874  0.38065554  0.72963805     0.22100
C1909       C  0.83981061  0.39720544  0.73583035    -0.34200
C1910       C  0.82361977  0.40238079  0.72390994     0.16200
O1911       O  0.80229223  0.39884599  0.69865480    -0.26200
C1912       C  0.79650745  0.41338996  0.71067704     0.06000
C1913       C  0.80913157  0.41613373  0.72671125    -0.31100
O1914       O  0.86619050  0.37298739  0.73881438    -0.22900
C1915       C  0.87071055  0.35709196  0.72804074    -0.02900
C1916       C  0.85834158  0.35450679  0.71176659    -0.17300
H1917       H  0.82556181  0.36704989  0.68774465     0.20700
H1918       H  0.84333156  0.40515442  0.74931393     0.19100
H1919       H  0.80721570  0.42598544  0.73923316     0.19000
H1920       H  0.85888998  0.34298321  0.70061259     0.14900
C1921       C  0.71657859  0.32271287  0.65340980     0.30300
C1922       C  0.72327767  0.33101352  0.67119025    -0.36000
C1923       C  0.72373225  0.35168334  0.67193490     0.16300
C1924       C  0.71825026  0.36344630  0.65616036     0.22100
C1925       C  0.71111061  0.35510256  0.63843570    -0.34200
C1926       C  0.71037583  0.33431733  0.63777979     0.16200
O1927       O  0.71585465  0.30371632  0.64934678    -0.26200
C1928       C  0.70879897  0.30297004  0.63100055     0.06000
C1929       C  0.70488538  0.32154446  0.62300981    -0.31100
O1930       O  0.72073642  0.38246731  0.65992713    -0.22900
C1931       C  0.72759496  0.38277048  0.67842438    -0.02900
C1932       C  0.72964835  0.36406990  0.68666119    -0.17300
H1933       H  0.72808092  0.32195438  0.68349604     0.20700
H1934       H  0.70669647  0.36415246  0.62598244     0.19100
H1935       H  0.69957813  0.32508501  0.60831196     0.19000
H1936       H  0.73510129  0.36018999  0.70122413     0.14900
C1937       C  0.49210621  0.28542284  0.77261001     0.30300
C1938       C  0.51268642  0.28794318  0.77333933    -0.36000
C1939       C  0.52390660  0.27053479  0.77447550     0.16300
C1940       C  0.51543847  0.25193464  0.77463599     0.22100
C1941       C  0.49485544  0.24941879  0.77397340    -0.34200
C1942       C  0.48362748  0.26683245  0.77305860     0.16200
O1943       O  0.47883741  0.29968230  0.77260531    -0.26200
C1944       C  0.46163705  0.29013912  0.77316729     0.06000
C1945       C  0.46367916  0.26965151  0.77346976    -0.31100
O1946       O  0.52866295  0.23771749  0.77622440    -0.22900
C1947       C  0.54582286  0.24730555  0.77721404    -0.02900
C1948       C  0.54379225  0.26777917  0.77625175    -0.17300
H1949       H  0.51944254  0.30247391  0.77349501     0.20700
H1950       H  0.48806816  0.23491656  0.77458847     0.19100
H1951       H  0.45219778  0.25853969  0.77457804     0.19000
H1952       H  0.55524227  0.27895292  0.77705121     0.14900
C1953       C  0.65834941  0.22491424  0.68086433     0.30300
C1954       C  0.65727715  0.21508006  0.69908980    -0.36000
C1955       C  0.63963671  0.21749366  0.70970742     0.16300
C1956       C  0.62414155  0.22902161  0.70305356     0.22100
C1957       C  0.62508116  0.23860401  0.68462943    -0.34200
C1958       C  0.64268239  0.23600358  0.67389163     0.16200
O1959       O  0.67374505  0.22526942  0.66887324    -0.26200
C1960       C  0.66780600  0.23657135  0.65390610     0.06000
C1961       C  0.64858081  0.24359013  0.65618028    -0.31100
O1962       O  0.60985158  0.23067974  0.71631026    -0.22900
C1963       C  0.61615966  0.21965665  0.73135800    -0.02900
C1964       C  0.63455200  0.21116434  0.72809379    -0.17300
H1965       H  0.66952977  0.20652128  0.70481934     0.20700
H1966       H  0.61316428  0.24785662  0.67928276     0.19100
H1967       H  0.64033587  0.25321416  0.64638962     0.19000
H1968       H  0.64345196  0.20270409  0.73838063     0.14900
C1969       C  0.67591224  0.17999800  0.79803711     0.30300
C1970       C  0.69650885  0.18042265  0.79614538    -0.36000
C1971       C  0.70647559  0.16317024  0.80181396     0.16300
C1972       C  0.69698593  0.14665374  0.80920728     0.22100
C1973       C  0.67626589  0.14608372  0.81072828    -0.34200
C1974       C  0.66622444  0.16329539  0.80473868     0.16200
O1975       O  0.66373511  0.19459756  0.79372239    -0.26200
C1976       C  0.64596237  0.18709294  0.79742998     0.06000
C1977       C  0.64655798  0.16763559  0.80419130    -0.31100
O1978       O  0.70949231  0.13246707  0.81429777    -0.22900
C1979       C  0.72711048  0.14000194  0.80972994    -0.02900
C1980       C  0.72605914  0.15895974  0.80183005    -0.17300
H1981       H  0.70424438  0.19333718  0.79067395     0.20700
H1982       H  0.66852978  0.13319051  0.81624047     0.19100
H1983       H  0.63429146  0.15818041  0.80825332     0.19000
H1984       H  0.73810100  0.16843929  0.79717800     0.14900
C1985       C  0.24846304  0.00231519  0.27052729     0.30300
C1986       C  0.24779602  0.01215927  0.28883010    -0.36000
C1987       C  0.24794890  0.03292526  0.28801946     0.16300
C1988       C  0.24851953  0.04333570  0.27043620     0.22100
C1989       C  0.24965524  0.03350117  0.25217603    -0.34200
C1990       C  0.24967001  0.01275783  0.25299749     0.16200
O1991       O  0.24711146  0.98300057  0.26766665    -0.26200
C1992       C  0.24775276  0.98110977  0.24805440     0.06000
C1993       C  0.24945529  0.99911273  0.23821877    -0.31100
O1994       O  0.24671356  0.06262311  0.27306854    -0.22900
C1995       C  0.24524002  0.06458877  0.29261722    -0.02900
C1996       C  0.24608451  0.04662930  0.30266361    -0.17300
H1997       H  0.24658781  0.00421205  0.30268750     0.20700
H1998       H  0.24984331  0.04144872  0.23826674     0.19100
H1999       H  0.24958737  0.00178653  0.22240980     0.19000
H2000       H  0.24440121  0.04399919  0.31838953     0.14900
C2001       C  0.53223661  0.76858326  0.24812706     0.30300
C2002       C  0.52306710  0.78715281  0.24977894    -0.36000
C2003       C  0.50230982  0.78702039  0.25012772     0.16300
C2004       C  0.49128726  0.76985662  0.24873943     0.22100
C2005       C  0.50044456  0.75129277  0.24743901    -0.34200
C2006       C  0.52116965  0.75141424  0.24730964     0.16200
O2007       O  0.55142227  0.76521562  0.24646419    -0.26200
C2008       C  0.55258054  0.74560226  0.24487956     0.06000
C2009       C  0.53423699  0.73629876  0.24541782    -0.31100
O2010       O  0.47208666  0.77328274  0.24809732    -0.22900
C2011       C  0.47079437  0.79289605  0.24932467    -0.02900
C2012       C  0.48911651  0.80219131  0.25072500    -0.17300
H2013       H  0.53149354  0.80077043  0.25031034     0.20700
H2014       H  0.49200778  0.73772626  0.24618390     0.19100
H2015       H  0.53097803  0.72068215  0.24378381     0.19000
H2016       H  0.49225567  0.81790285  0.25130445     0.14900
C2017       C  0.34144937  0.86356019  0.23637370     0.30300
C2018       C  0.32104813  0.86428700  0.23963214    -0.36000
C2019       C  0.31179269  0.88216256  0.23478820     0.16300
C2020       C  0.32171121  0.89813609  0.22677042     0.22100
C2021       C  0.34223275  0.89752541  0.22382502    -0.34200
C2022       C  0.35160135  0.87975694  0.22911871     0.16200
O2023       O  0.35308686  0.84836825  0.24006222    -0.26200
C2024       C  0.37095690  0.85504626  0.23541954     0.06000
C2025       C  0.37098389  0.87447412  0.22862885    -0.31100
O2026       O  0.30976475  0.91300413  0.22244591    -0.22900
C2027       C  0.29213941  0.90650180  0.22827062    -0.02900
C2028       C  0.29256690  0.88750937  0.23611857    -0.17300
H2029       H  0.31295952  0.85181377  0.24559374     0.20700
H2030       H  0.35031931  0.90999310  0.21785720     0.19100
H2031       H  0.38348542  0.88335231  0.22401776     0.19000
H2032       H  0.28028477  0.87864264  0.24132168     0.14900
C2033       C  0.37780408  0.80995744  0.31840075     0.30300
C2034       C  0.35991014  0.80403350  0.32687918    -0.36000
C2035       C  0.35842809  0.80634358  0.34736824     0.16300
C2036       C  0.37366742  0.81359265  0.35888584     0.22100
C2037       C  0.39152566  0.81999586  0.35028640    -0.34200
C2038       C  0.39288417  0.81802894  0.32958666     0.16200
O2039       O  0.38223921  0.80873001  0.29954020    -0.26200
C2040       C  0.40027260  0.81638645  0.29835174     0.06000
C2041       C  0.40771623  0.82264019  0.31655624    -0.31100
O2042       O  0.36940992  0.81306815  0.37796756    -0.22900
C2043       C  0.35110735  0.80576612  0.37846340    -0.02900
C2044       C  0.34349712  0.80148951  0.35986904    -0.17300
H2045       H  0.34802136  0.79784741  0.31809468     0.20700
H2046       H  0.40354839  0.82584803  0.35910795     0.19100
H2047       H  0.42191497  0.82933015  0.31970493     0.19000
H2048       H  0.32939764  0.79483398  0.35620414     0.14900
C2049       C  0.22546355  0.85138208  0.17946010     0.30300
C2050       C  0.22310445  0.83079664  0.18019845    -0.36000
C2051       C  0.22110635  0.82122890  0.16187855     0.16300
C2052       C  0.22113699  0.83117497  0.14400574     0.22100
C2053       C  0.22380582  0.85175505  0.14326041    -0.34200
C2054       C  0.22604101  0.86131145  0.16159715     0.16200
O2055       O  0.22756220  0.86330866  0.19480226    -0.26200
C2056       C  0.22968928  0.88107383  0.18663191     0.06000
C2057       C  0.22898434  0.88072397  0.16603781    -0.31100
O2058       O  0.21891342  0.81916802  0.12869441    -0.22900
C2059       C  0.21769962  0.80137140  0.13698382    -0.02900
C2060       C  0.21907304  0.80173154  0.15749884    -0.17300
H2061       H  0.22292515  0.82278730  0.19407290     0.20700
H2062       H  0.22419660  0.85974150  0.12937915     0.19100
H2063       H  0.23033852  0.89302051  0.15585971     0.19000
H2064       H  0.21868250  0.78934563  0.16765817     0.14900
C2065       C  0.26318265  0.51533995  0.24990457     0.30300
C2066       C  0.26306266  0.53609964  0.24888433    -0.36000
C2067       C  0.26379181  0.54616969  0.26705894     0.16300
C2068       C  0.26429703  0.53648677  0.28504164     0.22100
C2069       C  0.26434118  0.51570904  0.28607148    -0.34200
C2070       C  0.26391335  0.50563307  0.26786877     0.16200
O2071       O  0.26400175  0.50307085  0.23470595    -0.26200
C2072       C  0.26540666  0.48525934  0.24299965     0.06000
C2073       C  0.26539036  0.48593651  0.26361074    -0.31100
O2074       O  0.26614623  0.54880941  0.30011707    -0.22900
C2075       C  0.26694519  0.56660756  0.29168282    -0.02900
C2076       C  0.26553632  0.56586558  0.27114038    -0.17300
H2077       H  0.26315266  0.54385558  0.23486721     0.20700
H2078       H  0.26539667  0.50795630  0.30005118     0.19100
H2079       H  0.26697337  0.47376714  0.27390450     0.19000
H2080       H  0.26651814  0.57799055  0.26071962     0.14900
C2081       C  0.32524515  0.71447939  0.38566217     0.30300
C2082       C  0.32663427  0.70522995  0.36707662    -0.36000
C2083       C  0.31630216  0.68734100  0.36501325     0.16300
C2084       C  0.30561321  0.67897686  0.38028280     0.22100
C2085       C  0.30435673  0.68814019  0.39889040    -0.34200
C2086       C  0.31448892  0.70612887  0.40089586     0.16200
O2087       O  0.33160134  0.73240164  0.39005572    -0.26200
C2088       C  0.32506658  0.73544664  0.40839758     0.06000
C2089       C  0.31425168  0.71966578  0.41586060    -0.31100
O2090       O  0.29644169  0.66262209  0.37489023    -0.22900
C2091       C  0.30116653  0.66055942  0.35587869    -0.02900
C2092       C  0.31349488  0.67549535  0.34890510    -0.17300
H2093       H  0.33443908  0.71197321  0.35482191     0.20700
H2094       H  0.29542700  0.68207528  0.41072107     0.19100
H2095       H  0.30589477  0.71905505  0.42952278     0.19000
H2096       H  0.31935923  0.67741046  0.33411059     0.14900
C2097       C  0.02114824  0.75199146  0.27308756     0.30300
C2098       C  0.00067573  0.74840303  0.27349130    -0.36000
C2099       C  0.98846415  0.76520723  0.27323124     0.16300
C2100       C  0.99593994  0.78419665  0.27228616     0.22100
C2101       C  0.01639393  0.78778009  0.27187540    -0.34200
C2102       C  0.02860015  0.77100352  0.27246156     0.16200
O2103       O  0.03518171  0.73854552  0.27466590    -0.26200
C2104       C  0.05185734  0.74903444  0.27520105     0.06000
C2105       C  0.04867381  0.76934447  0.27386604    -0.31100
O2106       O  0.98196519  0.79776677  0.27293366    -0.22900
C2107       C  0.96527725  0.78742161  0.27446991    -0.02900
C2108       C  0.96839346  0.76704475  0.27475553    -0.17300
H2109       H  0.99471325  0.73357192  0.27460602     0.20700
H2110       H  0.02236889  0.80264936  0.27175955     0.19100
H2111       H  0.05947303  0.78114769  0.27469134     0.19000
H2112       H  0.95753711  0.75537387  0.27631592     0.14900
C2113       C  0.15298944  0.72806350  0.21866826     0.30300
C2114       C  0.17181634  0.73208285  0.21101295    -0.36000
C2115       C  0.17349344  0.73168918  0.19035998     0.16300
C2116       C  0.15763042  0.72802293  0.17802451     0.22100
C2117       C  0.13881868  0.72358197  0.18572493    -0.34200
C2118       C  0.13721926  0.72356659  0.20647889     0.16200
O2119       O  0.14804971  0.72846371  0.23749400    -0.26200
C2120       C  0.12897152  0.72376085  0.23751768     0.06000
C2121       C  0.12136909  0.72038336  0.21866256    -0.31100
O2122       O  0.16233817  0.72977562  0.15913344    -0.22900
C2123       C  0.18152780  0.73421331  0.15945364    -0.02900
C2124       C  0.18927670  0.73547137  0.17846413    -0.17300
H2125       H  0.18423157  0.73558322  0.22051186     0.20700
H2126       H  0.12627025  0.72065636  0.17621344     0.19100
H2127       H  0.10630023  0.71690150  0.21454229     0.19000
H2128       H  0.20413750  0.73950166  0.18285567     0.14900
C2129       C  0.16991810  0.67005098  0.31652377     0.30300
C2130       C  0.17770679  0.65152256  0.32202439    -0.36000
C2131       C  0.19842803  0.64989588  0.32171619     0.16300
C2132       C  0.21047694  0.66538912  0.31605736     0.22100
C2133       C  0.20274842  0.68397943  0.31112435    -0.34200
C2134       C  0.18215152  0.68568428  0.31173052     0.16200
O2135       O  0.15104736  0.67451794  0.31428805    -0.26200
C2136       C  0.15128530  0.69334181  0.30837414     0.06000
C2137       C  0.17021998  0.70109977  0.30671874    -0.31100
O2138       O  0.22923387  0.66037693  0.31533013    -0.22900
C2139       C  0.22940475  0.64152984  0.32094652    -0.02900
C2140       C  0.21067807  0.63416760  0.32532281    -0.17300
H2141       H  0.16827678  0.63912168  0.32573317     0.20700
H2142       H  0.21214445  0.69613199  0.30659335     0.19100
H2143       H  0.17455686  0.71558635  0.30142277     0.19000
H2144       H  0.20665708  0.61929054  0.32969826     0.14900
C2145       C  0.26940810  0.99719614  0.75418724     0.30300
C2146       C  0.27084025  0.00575674  0.73527339    -0.36000
C2147       C  0.26766738  0.02630574  0.73427421     0.16300
C2148       C  0.26355986  0.03768807  0.75077503     0.22100
C2149       C  0.26172789  0.02907794  0.76959539    -0.34200
C2150       C  0.26477507  0.00854309  0.77056790     0.16200
O2151       O  0.27308783  0.97852397  0.75878223    -0.26200
C2152       C  0.27061509  0.97789289  0.77835146     0.06000
C2153       C  0.26531931  0.99612949  0.78641883    -0.31100
O2154       O  0.26293214  0.05681142  0.74676784    -0.22900
C2155       C  0.26636162  0.05771389  0.72737299    -0.02900
C2156       C  0.26928135  0.03916376  0.71879960    -0.17300
H2157       H  0.27478355  0.99711659  0.72234504     0.20700
H2158       H  0.25880810  0.03788089  0.78268748     0.19100
H2159       H  0.26303408  0.99986614  0.80185248     0.19000
H2160       H  0.27325815  0.03578377  0.70363246     0.14900
C2161       C  0.21057682  0.88193868  0.79549058     0.30300
C2162       C  0.20247084  0.86378395  0.78947834    -0.36000
C2163       C  0.18196562  0.86187462  0.79160955     0.16300
C2164       C  0.17016504  0.87697919  0.79870256     0.22100
C2165       C  0.17831883  0.89510287  0.80492310    -0.34200
C2166       C  0.19893149  0.89684825  0.80323250     0.16200
O2167       O  0.22943116  0.88669722  0.79507351    -0.26200
C2168       C  0.22999604  0.90476416  0.80292428     0.06000
C2169       C  0.21147128  0.91186143  0.80839360    -0.31100
O2170       O  0.15127879  0.87211667  0.79893792    -0.22900
C2171       C  0.15106306  0.85353994  0.79228504    -0.02900
C2172       C  0.16973373  0.84636952  0.78754666    -0.17300
H2173       H  0.21155941  0.85190494  0.78371938     0.20700
H2174       H  0.16925085  0.90692946  0.81081603     0.19100
H2175       H  0.20782387  0.92595403  0.81512532     0.19000
H2176       H  0.17362914  0.83201795  0.78153680     0.14900
C2177       C  0.27956119  0.76878813  0.00708425     0.30300
C2178       C  0.28213852  0.76745384  0.02768468    -0.36000
C2179       C  0.26479510  0.76664372  0.03904921     0.16300
C2180       C  0.24618125  0.76747613  0.03072437     0.22100
C2181       C  0.24359590  0.76894357  0.01012086    -0.34200
C2182       C  0.26095086  0.76939332  0.99872513     0.16200
O2183       O  0.29370715  0.76796950  0.99367330    -0.26200
C2184       C  0.28409579  0.76792153  0.97646345     0.06000
C2185       C  0.26365181  0.76885296  0.97868521    -0.31100
O2186       O  0.23202899  0.76535690  0.04398998    -0.22900
C2187       C  0.24166951  0.76298367  0.06102758    -0.02900
C2188       C  0.26211135  0.76367244  0.05886168    -0.17300
H2189       H  0.29665544  0.76627463  0.03431986     0.20700
H2190       H  0.22906695  0.76890443  0.00340354     0.19100
H2191       H  0.25243778  0.76822781  0.96726184     0.19000
H2192       H  0.27331843  0.76160723  0.07011451     0.14900
C2193       C  0.31623451  0.83061633  0.88055773     0.30300
C2194       C  0.31887354  0.83863449  0.86155647    -0.36000
C2195       C  0.30953766  0.85682490  0.85798159     0.16300
C2196       C  0.29857334  0.86656977  0.87221900     0.22100
C2197       C  0.29596635  0.85856816  0.89123096    -0.34200
C2198       C  0.30513733  0.84027700  0.89475458     0.16200
O2199       O  0.32196471  0.81291384  0.88638236    -0.26200
C2200       C  0.31463319  0.81123993  0.90459609     0.06000
C2201       C  0.30391202  0.82775908  0.91056449    -0.31100
O2202       O  0.29079352  0.88317826  0.86557017    -0.22900
C2203       C  0.29672087  0.88404374  0.84678582    -0.02900
C2204       C  0.30840781  0.86801462  0.84121667    -0.17300
H2205       H  0.32705151  0.83088676  0.85014616     0.20700
H2206       H  0.28691669  0.86581372  0.90230193     0.19100
H2207       H  0.29521615  0.82959423  0.92390258     0.19000
H2208       H  0.31507150  0.86506559  0.82693349     0.14900
C2209       C  0.35042058  0.74329692  0.84642721     0.30300
C2210       C  0.35045720  0.74664736  0.82600469    -0.36000
C2211       C  0.36722809  0.74016540  0.81578536     0.16300
C2212       C  0.38284594  0.73062178  0.82483154     0.22100
C2213       C  0.38294990  0.72750798  0.84543435    -0.34200
C2214       C  0.36624068  0.73438353  0.85578671     0.16200
O2215       O  0.33626922  0.74845664  0.85877308    -0.26200
C2216       C  0.34315514  0.74308424  0.87636938     0.06000
C2217       C  0.36178629  0.73433468  0.87550164    -0.31100
O2218       O  0.39673473  0.72535294  0.81205015    -0.22900
C2219       C  0.38991518  0.73198558  0.79476674    -0.02900
C2220       C  0.37171380  0.74135916  0.79628706    -0.17300
H2221       H  0.33828190  0.75393714  0.81859720     0.20700
H2222       H  0.39518875  0.72035332  0.85286301     0.19100
H2223       H  0.37069992  0.72883040  0.88761650     0.19000
H2224       H  0.36285336  0.74775362  0.78457240     0.14900
C2225       C  0.24443299  0.52834251  0.73992173     0.30300
C2226       C  0.24168070  0.50799473  0.73636144    -0.36000
C2227       C  0.24210020  0.49569273  0.75311734     0.16300
C2228       C  0.24524139  0.50298355  0.77197226     0.22100
C2229       C  0.24794379  0.52326115  0.77551836    -0.34200
C2230       C  0.24727422  0.53554118  0.75885651     0.16200
O2231       O  0.24360901  0.54261678  0.72663357    -0.26200
C2232       C  0.24580484  0.55913026  0.73724081     0.06000
C2233       C  0.24809352  0.55563064  0.75738361    -0.31100
O2234       O  0.24427025  0.48912763  0.78559556    -0.22900
C2235       C  0.24035890  0.47267391  0.77547520    -0.02900
C2236       C  0.23884989  0.47580579  0.75514055    -0.17300
H2237       H  0.23888492  0.50224415  0.72164948     0.20700
H2238       H  0.24988016  0.52911080  0.79033117     0.19100
H2239       H  0.24957341  0.56634738  0.76923699     0.19000
H2240       H  0.23528266  0.46515975  0.74367953     0.14900
C2241       C  0.31422913  0.65403996  0.71127927     0.30300
C2242       C  0.32434410  0.67115904  0.70523544    -0.36000
C2243       C  0.34151639  0.67586812  0.71590298     0.16300
C2244       C  0.34852652  0.66427566  0.73118440     0.22100
C2245       C  0.33829678  0.64725403  0.73737254    -0.34200
C2246       C  0.32087825  0.64276979  0.72696485     0.16200
O2247       O  0.29717600  0.64770370  0.70423309    -0.26200
C2248       C  0.29275543  0.63222724  0.71557377     0.06000
C2249       C  0.30685278  0.62857190  0.73011683    -0.31100
O2250       O  0.36480968  0.67152323  0.73916862    -0.22900
C2251       C  0.36808317  0.68814206  0.72908818    -0.02900
C2252       C  0.35402101  0.69164637  0.71448159    -0.17300
H2253       H  0.31888852  0.68046800  0.69340070     0.20700
H2254       H  0.34329880  0.63841964  0.74975933     0.19100
H2255       H  0.30636023  0.61765192  0.74182510     0.19000
H2256       H  0.35319496  0.70397926  0.70429430     0.14900
C2257       C  0.27160576  0.77377574  0.49909126     0.30300
C2258       C  0.25290441  0.77144232  0.50772305    -0.36000
C2259       C  0.25184975  0.77469600  0.52821534     0.16300
C2260       C  0.26803321  0.77994756  0.53952564     0.22100
C2261       C  0.28686366  0.78179900  0.53095527    -0.34200
C2262       C  0.28794694  0.77844865  0.51043610     0.16200
O2263       O  0.27554517  0.77344194  0.47995108    -0.26200
C2264       C  0.29473412  0.77764305  0.47902186     0.06000
C2265       C  0.30326455  0.78070321  0.49754142    -0.31100
O2266       O  0.26327980  0.78388510  0.55812164    -0.22900
C2267       C  0.24382256  0.78093446  0.55870304    -0.02900
C2268       C  0.23599065  0.77508893  0.54054812    -0.17300
H2269       H  0.23991770  0.76815193  0.49894540     0.20700
H2270       H  0.29962123  0.78630205  0.53952869     0.19100
H2271       H  0.31821635  0.78535917  0.50087123     0.19000
H2272       H  0.22066319  0.77240425  0.53678438     0.14900
C2273       C  0.21754353  0.68278362  0.66282524     0.30300
C2274       C  0.21055253  0.69080079  0.64502017    -0.36000
C2275       C  0.21452827  0.71091112  0.64202988     0.16300
C2276       C  0.22486158  0.72226234  0.65554894     0.22100
C2277       C  0.23151203  0.71433939  0.67354141    -0.34200
C2278       C  0.22728985  0.69428509  0.67666131     0.16200
O2279       O  0.21657071  0.66406583  0.66805225    -0.26200
C2280       C  0.22542273  0.66365355  0.68562047     0.06000
C2281       C  0.23224883  0.68202723  0.69187218    -0.31100
O2282       O  0.22711490  0.74066799  0.64962898    -0.22900
C2283       C  0.21794793  0.74115436  0.63220862    -0.02900
C2284       C  0.20975826  0.72309511  0.62671613    -0.17300
H2285       H  0.20280079  0.68191328  0.63415338     0.20700
H2286       H  0.23954450  0.72315129  0.68426425     0.19100
H2287       H  0.24070093  0.68553759  0.70503593     0.19000
H2288       H  0.20133780  0.71956894  0.61353747     0.14900
C2289       C  0.16013052  0.81988798  0.67521153     0.30300
C2290       C  0.15551308  0.83293008  0.69075700    -0.36000
C2291       C  0.13935551  0.82755739  0.70265007     0.16300
C2292       C  0.12878093  0.81030137  0.69972224     0.22100
C2293       C  0.13303847  0.79756802  0.68386808    -0.34200
C2294       C  0.14893460  0.80312706  0.67178775     0.16200
O2295       O  0.17512700  0.82149170  0.66278495    -0.26200
C2296       C  0.17323031  0.80572205  0.65108918     0.06000
C2297       C  0.15715346  0.79386054  0.65592201    -0.31100
O2298       O  0.11610222  0.80680431  0.71412664    -0.22900
C2299       C  0.11809862  0.82233603  0.72609281    -0.02900
C2300       C  0.13226305  0.83578555  0.71966110    -0.17300
H2301       H  0.16426223  0.84602150  0.69373985     0.20700
H2302       H  0.12497795  0.78391258  0.68153560     0.19100
H2303       H  0.15251033  0.78015233  0.64900030     0.19000
H2304       H  0.13791922  0.84861041  0.72746655     0.14900
C2305       C  0.76413176  0.00596433  0.76003239     0.30300
C2306       C  0.76426716  0.01473091  0.77888061    -0.36000
C2307       C  0.76544292  0.03546886  0.77933579     0.16300
C2308       C  0.76663222  0.04690860  0.76245172     0.22100
C2309       C  0.76612385  0.03814984  0.74355049    -0.34200
C2310       C  0.76473673  0.01737008  0.74308915     0.16200
O2311       O  0.76447907  0.98677496  0.75621187    -0.26200
C2312       C  0.76500763  0.98582345  0.73652992     0.06000
C2313       C  0.76506989  0.00441542  0.72759152    -0.31100
O2314       O  0.76897291  0.06595907  0.76646928    -0.22900
C2315       C  0.76901613  0.06667878  0.78619624    -0.02900
C2316       C  0.76676849  0.04815880  0.79491953    -0.17300
H2317       H  0.76401771  0.00596232  0.79228437     0.20700
H2318       H  0.76724777  0.04686709  0.73015860     0.19100
H2319       H  0.76632810  0.00785693  0.71198526     0.19000
H2320       H  0.76688679  0.04450441  0.81052850     0.14900
C2321       C  0.75534523  0.75599832  0.48909183     0.30300
C2322       C  0.77378851  0.75601429  0.49862501    -0.36000
C2323       C  0.77344031  0.75809723  0.51932172     0.16300
C2324       C  0.75614330  0.75970034  0.53004594     0.22100
C2325       C  0.73766451  0.75987352  0.52047522    -0.34200
C2326       C  0.73802648  0.75808331  0.49970321     0.16200
O2327       O  0.75224526  0.75376850  0.46989047    -0.26200
C2328       C  0.73266689  0.75465023  0.46807848     0.06000
C2329       C  0.72306434  0.75736640  0.48615711    -0.31100
O2330       O  0.75932272  0.76049794  0.54938880    -0.22900
C2331       C  0.77895146  0.75973963  0.55100910    -0.02900
C2332       C  0.78843896  0.75829423  0.53275938    -0.17300
H2333       H  0.78747180  0.75433423  0.49048307     0.20700
H2334       H  0.72395777  0.76110369  0.52865544     0.19100
H2335       H  0.70732542  0.75815339  0.48894868     0.19000
H2336       H  0.80411439  0.75681920  0.52987956     0.14900
C2337       C  0.79483100  0.85779700  0.66714333     0.30300
C2338       C  0.79443606  0.83709105  0.66740986    -0.36000
C2339       C  0.79892746  0.82763272  0.64950201     0.16300
C2340       C  0.80403297  0.83765957  0.63244358     0.22100
C2341       C  0.80437656  0.85852168  0.63215755    -0.34200
C2342       C  0.79935606  0.86807136  0.65006131     0.16200
O2343       O  0.79010782  0.86950528  0.68205873    -0.26200
C2344       C  0.79130256  0.88760160  0.67446562     0.06000
C2345       C  0.79698247  0.88765436  0.65460042    -0.31100
O2346       O  0.80734312  0.82551209  0.61731106    -0.22900
C2347       C  0.80387653  0.80762176  0.62490009    -0.02900
C2348       C  0.79862461  0.80815212  0.64477621    -0.17300
H2349       H  0.79033891  0.82890125  0.68055514     0.20700
H2350       H  0.80777467  0.86672112  0.61882479     0.19100
H2351       H  0.79877853  0.90026198  0.64488617     0.19000
H2352       H  0.79499901  0.79582785  0.65435611     0.14900
C2353       C  0.75726398  0.78704869  0.98624107     0.30300
C2354       C  0.77586574  0.78627577  0.99546431    -0.36000
C2355       C  0.77574015  0.78427257  0.01618703     0.16300
C2356       C  0.75852401  0.78339014  0.02713730     0.22100
C2357       C  0.73995864  0.78385030  0.01789868    -0.34200
C2358       C  0.74009047  0.78558952  0.99719066     0.16200
O2359       O  0.75381776  0.78964984  0.96713128    -0.26200
C2360       C  0.73416901  0.78956246  0.96585578     0.06000
C2361       C  0.72491315  0.78702819  0.98408755    -0.31100
O2362       O  0.76183155  0.78297389  0.04641651    -0.22900
C2363       C  0.78144887  0.78328263  0.04784885    -0.02900
C2364       C  0.79085826  0.78396846  0.02950495    -0.17300
H2365       H  0.78947262  0.78752353  0.98712346     0.20700
H2366       H  0.72634245  0.78329677  0.02630137     0.19100
H2367       H  0.70922937  0.78691234  0.98728266     0.19000
H2368       H  0.80653435  0.78512739  0.02649171     0.14900
C2369       C  0.48093643  0.78191932  0.75467438     0.30300
C2370       C  0.48955980  0.80085338  0.75374939    -0.36000
C2371       C  0.51025788  0.80157363  0.75571047     0.16300
C2372       C  0.52165980  0.78481625  0.75829630     0.22100
C2373       C  0.51301401  0.76602510  0.75976164    -0.34200
C2374       C  0.49240050  0.76532038  0.75786179     0.16200
O2375       O  0.46212725  0.77748073  0.75153633    -0.26200
C2376       C  0.46162097  0.75779797  0.75294286     0.06000
C2377       C  0.48000703  0.74953509  0.75699864    -0.31100
O2378       O  0.54078602  0.78855086  0.75759091    -0.22900
C2379       C  0.54173932  0.80801069  0.75478600    -0.02900
C2380       C  0.52319688  0.81693768  0.75370373    -0.17300
H2381       H  0.48086242  0.81398523  0.75085855     0.20700
H2382       H  0.52183336  0.75275258  0.76137501     0.19100
H2383       H  0.48384741  0.73401686  0.75816020     0.19000
H2384       H  0.51978961  0.83226105  0.75048894     0.14900
C2385       C  0.63898514  0.83548705  0.81444551     0.30300
C2386       C  0.65814583  0.83611567  0.82236734    -0.36000
C2387       C  0.66059334  0.82728864  0.84096784     0.16300
C2388       C  0.64522183  0.81849474  0.85112039     0.22100
C2389       C  0.62603430  0.81783941  0.84317731    -0.34200
C2390       C  0.62357609  0.82667879  0.82453756     0.16200
O2391       O  0.63382382  0.84137253  0.79660466    -0.26200
C2392       C  0.61479869  0.83659513  0.79528869     0.06000
C2393       C  0.60761860  0.82726361  0.81216551    -0.31100
O2394       O  0.65090372  0.81101054  0.86822343    -0.22900
C2395       C  0.67016227  0.81502667  0.86900227    -0.02900
C2396       C  0.67702501  0.82508772  0.85241595    -0.17300
H2397       H  0.67039013  0.84261869  0.81436135     0.20700
H2398       H  0.61396484  0.81062347  0.85082787     0.19100
H2399       H  0.59326438  0.82052296  0.81434714     0.19000
H2400       H  0.69189619  0.83013980  0.84932983     0.14900
C2401       C  0.66147646  0.88728949  0.71734457     0.30300
C2402       C  0.66996658  0.90553943  0.71188833    -0.36000
C2403       C  0.69073074  0.90595487  0.71067284     0.16300
C2404       C  0.70218918  0.88959454  0.71493892     0.22100
C2405       C  0.69373498  0.87136445  0.72001324    -0.34200
C2406       C  0.67308851  0.87087689  0.72089590     0.16200
O2407       O  0.64248254  0.88360123  0.72006901    -0.26200
C2408       C  0.64201581  0.86452151  0.72511937     0.06000
C2409       C  0.66062217  0.85585990  0.72577822    -0.31100
O2410       O  0.72121772  0.89342857  0.71426709    -0.22900
C2411       C  0.72215723  0.91238657  0.70911801    -0.02900
C2412       C  0.70364738  0.92102611  0.70650100    -0.17300
H2413       H  0.66104603  0.91853834  0.70908622     0.20700
H2414       H  0.70268219  0.85851418  0.72337462     0.19100
H2415       H  0.66443105  0.84084416  0.72987153     0.19000
H2416       H  0.70025225  0.93628931  0.70301882     0.14900
C2417       C  0.99586217  0.75615958  0.77060458     0.30300
C2418       C  0.01646625  0.75382603  0.76946920    -0.36000
C2419       C  0.02769297  0.77126109  0.77066993     0.16300
C2420       C  0.01920459  0.78975276  0.77255428     0.22100
C2421       C  0.99859779  0.79208348  0.77372056    -0.34200
C2422       C  0.98737779  0.77461760  0.77280860     0.16200
O2423       O  0.98267545  0.74177895  0.77083896    -0.26200
C2424       C  0.96550111  0.75108447  0.77335542     0.06000
C2425       C  0.96751768  0.77155907  0.77470185    -0.31100
O2426       O  0.03248830  0.80397312  0.77408496    -0.22900
C2427       C  0.04972401  0.79448234  0.77333181    -0.02900
C2428       C  0.04765698  0.77408139  0.77122934    -0.17300
H2429       H  0.02328244  0.73937294  0.76827897     0.20700
H2430       H  0.99182170  0.80646477  0.77573664     0.19100
H2431       H  0.95610379  0.78249848  0.77727061     0.19000
H2432       H  0.05916143  0.76295382  0.77067818     0.14900
C2433       C  0.86841175  0.73845573  0.71142874     0.30300
C2434       C  0.85038506  0.74487417  0.70343051    -0.36000
C2435       C  0.84860213  0.74358435  0.68279322     0.16300
C2436       C  0.86370688  0.73692352  0.67075729     0.22100
C2437       C  0.88169357  0.73024537  0.67880733    -0.34200
C2438       C  0.88330642  0.73107158  0.69955201     0.16200
O2439       O  0.87306245  0.73817790  0.73035940    -0.26200
C2440       C  0.89103710  0.73019393  0.73075707     0.06000
C2441       C  0.89817509  0.72534562  0.71202817    -0.31100
O2442       O  0.85890523  0.73737442  0.65179594    -0.22900
C2443       C  0.84036091  0.74402033  0.65178687    -0.02900
C2444       C  0.83317163  0.74806290  0.67064869    -0.17300
H2445       H  0.83849455  0.75030990  0.71269031     0.20700
H2446       H  0.89350972  0.72462754  0.66956556     0.19100
H2447       H  0.91224429  0.71873744  0.70820209     0.19000
H2448       H  0.81878150  0.75376526  0.67474565     0.14900
C2449       C  0.74742134  0.53799689  0.77440902     0.30300
C2450       C  0.75035000  0.51753142  0.77648728    -0.36000
C2451       C  0.75092928  0.50652664  0.75885564     0.16300
C2452       C  0.74903126  0.51507653  0.74039473     0.22100
C2453       C  0.74616004  0.53557770  0.73831194    -0.34200
C2454       C  0.74530552  0.54656003  0.75597922     0.16200
O2455       O  0.74549104  0.55090817  0.78896628    -0.26200
C2456       C  0.74197998  0.56797929  0.77978461     0.06000
C2457       C  0.74167517  0.56616880  0.75923868    -0.31100
O2458       O  0.74876841  0.50182239  0.72599265    -0.22900
C2459       C  0.75038776  0.48456155  0.73536967    -0.02900
C2460       C  0.75183753  0.48660470  0.75582610    -0.17300
H2461       H  0.75147501  0.51058864  0.79088238     0.20700
H2462       H  0.74408606  0.54239126  0.72396145     0.19100
H2463       H  0.73888421  0.57757221  0.74834363     0.19000
H2464       H  0.75248649  0.47503915  0.76689034     0.14900
C2465       C  0.81560912  0.64744355  0.80514509     0.30300
C2466       C  0.83629023  0.64695724  0.80766803    -0.36000
C2467       C  0.84660403  0.66424152  0.80215537     0.16300
C2468       C  0.83711961  0.68093887  0.79517183     0.22100
C2469       C  0.81663999  0.68130106  0.79237533    -0.34200
C2470       C  0.80647962  0.66397695  0.79737562     0.16200
O2471       O  0.80284319  0.63311138  0.80926260    -0.26200
C2472       C  0.78550246  0.64059565  0.80357128     0.06000
C2473       C  0.78697922  0.65965217  0.79603570    -0.31100
O2474       O  0.84938600  0.69552015  0.79110616    -0.22900
C2475       C  0.86709435  0.68807750  0.79515543    -0.02900
C2476       C  0.86635333  0.66861020  0.80197889    -0.17300
H2477       H  0.84380974  0.63401043  0.81334227     0.20700
H2478       H  0.80914277  0.69417516  0.78649956     0.19100
H2479       H  0.77521473  0.66912784  0.79071843     0.19000
H2480       H  0.87855520  0.65914211  0.80618413     0.14900
C2481       C  0.71435181  0.68792051  0.86333648     0.30300
C2482       C  0.70678019  0.69663607  0.88065524    -0.36000
C2483       C  0.71037817  0.71697753  0.88299727     0.16300
C2484       C  0.72104993  0.72788269  0.86942094     0.22100
C2485       C  0.72839609  0.71924193  0.85198930    -0.34200
C2486       C  0.72440786  0.69901941  0.84944068     0.16200
O2487       O  0.71288445  0.66910266  0.85821905    -0.26200
C2488       C  0.72170729  0.66828087  0.84062013     0.06000
C2489       C  0.72908168  0.68643811  0.83436426    -0.31100
O2490       O  0.72262268  0.74666013  0.87452625    -0.22900
C2491       C  0.71261803  0.74789540  0.89146359    -0.02900
C2492       C  0.70460093  0.72990125  0.89744050    -0.17300
H2493       H  0.69853422  0.68818079  0.89146813     0.20700
H2494       H  0.73646811  0.72774425  0.84107821     0.19100
H2495       H  0.73720656  0.68970936  0.82094393     0.19000
H2496       H  0.69565856  0.72686938  0.91038135     0.14900
C2497       C  0.85836116  0.96747813  0.69210430     0.30300
C2498       C  0.87215915  0.97878264  0.68155192    -0.36000
C2499       C  0.89207840  0.97445205  0.68526448     0.16300
C2500       C  0.89805362  0.95992445  0.69834170     0.22100
C2501       C  0.88427241  0.94897556  0.70925615    -0.34200
C2502       C  0.86436780  0.95338959  0.70563895     0.16200
O2503       O  0.83899764  0.96790324  0.68983297    -0.26200
C2504       C  0.83258823  0.95407402  0.70226744     0.06000
C2505       C  0.84768689  0.94470948  0.71261069    -0.31100
O2506       O  0.91737063  0.95733844  0.69837094    -0.22900
C2507       C  0.92381906  0.97056349  0.68532868    -0.02900
C2508       C  0.90877572  0.98170532  0.67681388    -0.17300
H2509       H  0.86768841  0.98970590  0.67072678     0.20700
H2510       H  0.88872948  0.93738225  0.71936643     0.19100
H2511       H  0.84656342  0.93254191  0.72297298     0.19000
H2512       H  0.90994358  0.99292275  0.66543445     0.14900
C2513       C  0.17728161  0.90663383  0.56478584     0.30300
C2514       C  0.17263888  0.88670295  0.56115102    -0.36000
C2515       C  0.18434877  0.87275297  0.57104163     0.16300
C2516       C  0.19966951  0.87811213  0.58346138     0.22100
C2517       C  0.20426547  0.89800711  0.58713712    -0.34200
C2518       C  0.19242236  0.91193120  0.57745059     0.16200
O2519       O  0.16794778  0.92211240  0.55754210    -0.26200
C2520       C  0.17711590  0.93746252  0.56583149     0.06000
C2521       C  0.19244102  0.93205268  0.57839168    -0.31100
O2522       O  0.20831244  0.86274676  0.59164477    -0.22900
C2523       C  0.19839281  0.84732836  0.58447209    -0.02900
C2524       C  0.18328081  0.85260277  0.57156163    -0.17300
H2525       H  0.16053470  0.88239783  0.55158054     0.20700
H2526       H  0.21599828  0.90231468  0.59716218     0.19100
H2527       H  0.20205853  0.94154846  0.58701640     0.19000
H2528       H  0.17277634  0.84305522  0.56411827     0.14900
C2529       C  0.09144857  0.97565734  0.61182189     0.30300
C2530       C  0.08308700  0.96743037  0.62904282    -0.36000
C2531       C  0.06386966  0.97380704  0.63376288     0.16300
C2532       C  0.05393433  0.98765287  0.62250984     0.22100
C2533       C  0.06213943  0.99563031  0.60525710    -0.34200
C2534       C  0.08101613  0.98888693  0.60028019     0.16200
O2535       O  0.10936123  0.97230868  0.60480475    -0.26200
C2536       C  0.11002989  0.98311425  0.58832661     0.06000
C2537       C  0.09282759  0.99365895  0.58473299    -0.31100
O2538       O  0.03615413  0.99142132  0.62929035    -0.22900
C2539       C  0.03437122  0.97969355  0.64496406    -0.02900
C2540       C  0.05114438  0.96828219  0.64853062    -0.17300
H2541       H  0.09093879  0.95674811  0.63801758     0.20700
H2542       H  0.05422369  0.00620344  0.59620273     0.19100
H2543       H  0.08988212  0.00407919  0.57292317     0.19000
H2544       H  0.05341201  0.95727575  0.65994065     0.14900
C2545       C  0.07771790  0.20436156  0.61297725     0.30300
C2546       C  0.08855523  0.21502180  0.62707387    -0.36000
C2547       C  0.08435562  0.21062406  0.64689938     0.16300
C2548       C  0.07068776  0.19651285  0.65254874     0.22100
C2549       C  0.05969786  0.18601364  0.63845971    -0.34200
C2550       C  0.06368461  0.19062188  0.61864237     0.16200
O2551       O  0.07950794  0.20571211  0.59357313    -0.26200
C2552       C  0.06624546  0.19284938  0.58682496     0.06000
C2553       C  0.05594096  0.18311265  0.60172570    -0.31100
O2554       O  0.06973698  0.19429355  0.67192543    -0.22900
C2555       C  0.08276561  0.20737579  0.67868981    -0.02900
C2556       C  0.09224888  0.21796537  0.66382118    -0.17300
H2557       H  0.09957458  0.22586269  0.62289436     0.20700
H2558       H  0.04891321  0.17493757  0.64263596     0.19100
H2559       H  0.04472755  0.17175979  0.60026255     0.19000
H2560       H  0.10370962  0.22906739  0.66529070     0.14900
C2561       C  0.09390449  0.09780774  0.54066851     0.30300
C2562       C  0.09352010  0.07725353  0.53788098    -0.36000
C2563       C  0.11102274  0.06715232  0.54244734     0.16300
C2564       C  0.12767581  0.07645840  0.54977740     0.22100
C2565       C  0.12815524  0.09710145  0.55231254    -0.34200
C2566       C  0.11075503  0.10729167  0.54729234     0.16200
O2567       O  0.07934422  0.11019611  0.53677594    -0.26200
C2568       C  0.08705514  0.12788420  0.54065964     0.06000
C2569       C  0.10655811  0.12700930  0.54718589    -0.31100
O2570       O  0.14216641  0.06389141  0.55362788    -0.22900
C2571       C  0.13474056  0.04644324  0.54823100    -0.02900
C2572       C  0.11549953  0.04761904  0.54111477    -0.17300
H2573       H  0.08055074  0.06968386  0.53230690     0.20700
H2574       H  0.14121032  0.10469865  0.55763722     0.19100
H2575       H  0.11626043  0.13916927  0.55104652     0.19000
H2576       H  0.10601055  0.03566704  0.53619560     0.14900
C2577       C  0.94107168  0.83993434  0.36472802     0.30300
C2578       C  0.95150808  0.85235132  0.37769423    -0.36000
C2579       C  0.94836390  0.84908038  0.39795398     0.16300
C2580       C  0.93560280  0.83479141  0.40504551     0.22100
C2581       C  0.92531529  0.82221760  0.39206862    -0.34200
C2582       C  0.92866293  0.82532085  0.37178857     0.16200
O2583       O  0.94141986  0.84071193  0.34520389    -0.26200
C2584       C  0.92924666  0.82625387  0.33968386     0.06000
C2585       C  0.92092502  0.81615000  0.35559092    -0.31100
O2586       O  0.93427196  0.83496297  0.42456590    -0.22900
C2587       C  0.94657233  0.84936715  0.42999792    -0.02900
C2588       C  0.95578068  0.85859394  0.41407014    -0.17300
H2589       H  0.96125509  0.86388349  0.37236123     0.20700
H2590       H  0.91525791  0.81095208  0.39739275     0.19100
H2591       H  0.91032058  0.80414492  0.35524152     0.19000
H2592       H  0.96597296  0.87095494  0.41433355     0.14900
C2593       C  0.95800589  0.92496492  0.59808291     0.30300
C2594       C  0.95115353  0.90706227  0.58989452    -0.36000
C2595       C  0.95404557  0.90464757  0.56942656     0.16300
C2596       C  0.96334090  0.91878445  0.55798969     0.22100
C2597       C  0.96970038  0.93684487  0.56605440    -0.34200
C2598       C  0.96650699  0.93939202  0.58639136     0.16200
O2599       O  0.95804120  0.92981730  0.61702194    -0.26200
C2600       C  0.96624238  0.94775113  0.61735443     0.06000
C2601       C  0.97165052  0.95453884  0.59871575    -0.31100
O2602       O  0.96545131  0.91317218  0.53944760    -0.22900
C2603       C  0.95714869  0.89532995  0.53880435    -0.02900
C2604       C  0.94959971  0.88925823  0.55698925    -0.17300
H2605       H  0.94441478  0.89567254  0.59891091     0.20700
H2606       H  0.97695560  0.94799589  0.55713809     0.19100
H2607       H  0.97932032  0.96810122  0.59498620     0.19000
H2608       H  0.94229024  0.87545852  0.56055535     0.14900
C2609       C  0.80214206  0.16510468  0.43533518     0.30300
C2610       C  0.79713349  0.14589464  0.42895720    -0.36000
C2611       C  0.80743337  0.13030011  0.43808126     0.16300
C2612       C  0.82131411  0.13350683  0.45273728     0.22100
C2613       C  0.82613590  0.15258061  0.45922517    -0.34200
C2614       C  0.81620055  0.16808426  0.44986355     0.16200
O2615       O  0.79583765  0.18192101  0.42763241    -0.26200
C2616       C  0.80615932  0.19569595  0.43729539     0.06000
C2617       C  0.81896626  0.18792884  0.45133010    -0.31100
O2618       O  0.83006718  0.11713934  0.45844173    -0.22900
C2619       C  0.82191560  0.10314658  0.44725813    -0.02900
C2620       C  0.80763510  0.11038824  0.43429427    -0.17300
H2621       H  0.78664987  0.14335071  0.41711153     0.20700
H2622       H  0.83753112  0.15518517  0.47018433     0.19100
H2623       H  0.82944994  0.19574269  0.46060762     0.19000
H2624       H  0.79919197  0.10231013  0.42331629     0.14900
C2625       C  0.89369204  0.97639912  0.46120638     0.30300
C2626       C  0.91213840  0.96883871  0.46678629    -0.36000
C2627       C  0.91377307  0.94820184  0.46704496     0.16300
C2628       C  0.89821804  0.93576764  0.46249631     0.22100
C2629       C  0.87979962  0.94337643  0.45646907    -0.34200
C2630       C  0.87824924  0.96413658  0.45585697     0.16200
O2631       O  0.88879152  0.99521802  0.46092018    -0.26200
C2632       C  0.87006680  0.99520721  0.45496330     0.06000
C2633       C  0.86267626  0.97629206  0.45137080    -0.31100
O2634       O  0.90284035  0.91691073  0.46486746    -0.22900
C2635       C  0.92168016  0.91739215  0.47062268    -0.02900
C2636       C  0.92925856  0.93644396  0.47212200    -0.17300
H2637       H  0.92429081  0.97840903  0.47095715     0.20700
H2638       H  0.86748686  0.93380718  0.45281850     0.19100
H2639       H  0.84785469  0.97212062  0.44699819     0.19000
H2640       H  0.94385845  0.94095748  0.47690905     0.14900
C2641       C  0.14394538  0.09887682  0.31799184     0.30300
C2642       C  0.12503479  0.10449383  0.31153873    -0.36000
C2643       C  0.10908123  0.09511931  0.32089969     0.16300
C2644       C  0.11157187  0.08093013  0.33537646     0.22100
C2645       C  0.13050697  0.07530998  0.34183295    -0.34200
C2646       C  0.14647708  0.08493978  0.33270434     0.16200
O2647       O  0.16081925  0.10651831  0.31197116    -0.26200
C2648       C  0.17438223  0.09753170  0.32305929     0.06000
C2649       C  0.16633362  0.08392448  0.33625439    -0.31100
O2650       O  0.09459295  0.07446766  0.34248297    -0.22900
C2651       C  0.08105287  0.08476616  0.33255845    -0.02900
C2652       C  0.08921169  0.09787021  0.31893903    -0.17300
H2653       H  0.12290890  0.11577265  0.30036721     0.20700
H2654       H  0.13261499  0.06456042  0.35351585     0.19100
H2655       H  0.17394050  0.07499286  0.34715253     0.19000
H2656       H  0.08161547  0.10811298  0.30925211     0.14900
C2657       C  0.90867147  0.06494123  0.39254156     0.30300
C2658       C  0.91776252  0.06184322  0.37401913    -0.36000
C2659       C  0.93701769  0.06942807  0.37187561     0.16300
C2660       C  0.94652276  0.07950345  0.38692020     0.22100
C2661       C  0.93742443  0.08266599  0.40535493    -0.34200
C2662       C  0.91830964  0.07492899  0.40754749     0.16200
O2663       O  0.89119774  0.05821832  0.39815163    -0.26200
C2664       C  0.88967966  0.06387014  0.41703142     0.06000
C2665       C  0.90612626  0.07435266  0.42364257    -0.31100
O2666       O  0.96485695  0.08420760  0.38230657    -0.22900
C2667       C  0.96721035  0.07723622  0.36401192    -0.02900
C2668       C  0.95041709  0.06776952  0.35673824    -0.17300
H2669       H  0.91056235  0.05356957  0.36232065     0.20700
H2670       H  0.94500017  0.09008396  0.41738640     0.19100
H2671       H  0.90889185  0.08025778  0.43830184     0.19000
H2672       H  0.94869119  0.05998054  0.34281866     0.14900
C2673       C  0.04026702  0.13256900  0.41469152     0.30300
C2674       C  0.04717997  0.15036581  0.42310463    -0.36000
C2675       C  0.04831897  0.15084173  0.44389598     0.16300
C2676       C  0.04256066  0.13501358  0.45545357     0.22100
C2677       C  0.03589884  0.11723748  0.44709562    -0.34200
C2678       C  0.03516304  0.11664014  0.42641199     0.16200
O2679       O  0.03832643  0.12863811  0.39561689    -0.26200
C2680       C  0.03221066  0.10988029  0.39522732     0.06000
C2681       C  0.02999637  0.10168322  0.41394889    -0.31100
O2682       O  0.04391963  0.13878463  0.47448146    -0.22900
C2683       C  0.05097668  0.15713108  0.47530187    -0.02900
C2684       C  0.05420115  0.16544180  0.45673081    -0.17300
H2685       H  0.05145444  0.16288787  0.41408486     0.20700
H2686       H  0.03162258  0.10471491  0.45612306     0.19100
H2687       H  0.02532824  0.08683929  0.41777947     0.19000
H2688       H  0.05933630  0.18021126  0.45325400     0.14900
C2689       C  0.90049242  0.08430850  0.83121680     0.30300
C2690       C  0.88723714  0.09518813  0.81960974    -0.36000
C2691       C  0.86721654  0.09337458  0.82460217     0.16300
C2692       C  0.86052218  0.08180808  0.84005327     0.22100
C2693       C  0.87380294  0.07066350  0.85153230    -0.34200
C2694       C  0.89389366  0.07231525  0.84639260     0.16200
O2695       O  0.91994051  0.08460428  0.82972045    -0.26200
C2696       C  0.92592353  0.07238834  0.84392495     0.06000
C2697       C  0.91036531  0.06421821  0.85469653    -0.31100
O2698       O  0.84112305  0.08299542  0.84244698    -0.22900
C2699       C  0.83543637  0.09536530  0.82818769    -0.02900
C2700       C  0.85106679  0.10218727  0.81667559    -0.17300
H2701       H  0.89221241  0.10467813  0.80770369     0.20700
H2702       H  0.86887218  0.06157203  0.86376119     0.19100
H2703       H  0.91115885  0.05443649  0.86735902     0.19000
H2704       H  0.85061525  0.11250384  0.80442385     0.14900
C2705       C  0.99416016  0.00312012  0.75134760     0.30300
C2706       C  0.99351556  0.99905041  0.77175374    -0.36000
C2707       C  0.99436014  0.01552945  0.78442619     0.16300
C2708       C  0.99605046  0.03464454  0.77743271     0.22100
C2709       C  0.99672671  0.03870852  0.75704546    -0.34200
C2710       C  0.99554348  0.02227020  0.74438206     0.16200
O2711       O  0.99234374  0.99006520  0.73692686    -0.26200
C2712       C  0.99238926  0.00096360  0.72050142     0.06000
C2713       C  0.99433125  0.02113913  0.72422042    -0.31100
O2714       O  0.99559554  0.04789513  0.79175781    -0.22900
C2715       C  0.99345854  0.03722679  0.80818846    -0.02900
C2716       C  0.99261682  0.01694502  0.80455809    -0.17300
H2717       H  0.99180381  0.98413056  0.77732862     0.20700
H2718       H  0.99743639  0.05370328  0.75145224     0.19100
H2719       H  0.99425979  0.03319656  0.71367674     0.19000
H2720       H  0.99033564  0.00509698  0.81509136     0.14900
C2721       C  0.19645291  0.15792408  0.93553235     0.30300
C2722       C  0.20251259  0.13860077  0.93107035    -0.36000
C2723       C  0.19227150  0.12345569  0.94074496     0.16300
C2724       C  0.17720126  0.12705333  0.95406254     0.22100
C2725       C  0.17095606  0.14643557  0.95836398    -0.34200
C2726       C  0.18112762  0.16163488  0.94852820     0.16200
O2727       O  0.20394619  0.17420273  0.92799151    -0.26200
C2728       C  0.19325473  0.18859754  0.93610005     0.06000
C2729       C  0.17874133  0.18170896  0.94897752    -0.31100
O2730       O  0.16980825  0.11059303  0.96146921    -0.22900
C2731       C  0.18019995  0.09634931  0.95263354    -0.02900
C2732       C  0.19431593  0.10346716  0.93952674    -0.17300
H2733       H  0.21434147  0.13559151  0.92069482     0.20700
H2734       H  0.15898426  0.14943447  0.96857466     0.19100
H2735       H  0.16799070  0.19020760  0.95728375     0.19000
H2736       H  0.20456168  0.09512069  0.93045517     0.14900
C2737       C  0.08831337  0.05090779  0.92357949     0.30300
C2738       C  0.06764261  0.05054312  0.92459865    -0.36000
C2739       C  0.05759092  0.05519131  0.90707556     0.16300
C2740       C  0.06707900  0.06042875  0.88974797     0.22100
C2741       C  0.08787228  0.06073598  0.88871217    -0.34200
C2742       C  0.09799611  0.05553002  0.90618368     0.16200
O2743       O  0.10053176  0.04648242  0.93812511    -0.26200
C2744       C  0.11834860  0.04791788  0.92994561     0.06000
C2745       C  0.11771685  0.05346852  0.91007257    -0.31100
O2746       O  0.05452276  0.06393206  0.87508065    -0.22900
C2747       C  0.03688706  0.06047659  0.88317925    -0.02900
C2748       C  0.03796604  0.05501086  0.90297854    -0.17300
H2749       H  0.05991628  0.04646311  0.93802835     0.20700
H2750       H  0.09560208  0.06432454  0.87514861     0.19100
H2751       H  0.12999023  0.05578162  0.90005164     0.19000
H2752       H  0.02593265  0.05131150  0.91288481     0.14900
C2753       C  0.08896863  0.81972081  0.87087317     0.30300
C2754       C  0.09513348  0.81355765  0.88974341    -0.36000
C2755       C  0.08538264  0.82234359  0.90585817     0.16300
C2756       C  0.07034713  0.83596403  0.90352114     0.22100
C2757       C  0.06406490  0.84198280  0.88467152    -0.34200
C2758       C  0.07407971  0.83350878  0.86859023     0.16200
O2759       O  0.09693894  0.81445753  0.85383443    -0.26200
C2760       C  0.08715675  0.82515651  0.84050891     0.06000
C2761       C  0.07273872  0.83725746  0.84882643    -0.31100
O2762       O  0.06420028  0.84330560  0.92052016    -0.22900
C2763       C  0.07551028  0.83441382  0.93394789    -0.02900
C2764       C  0.08892007  0.82112575  0.92571079    -0.17300
H2765       H  0.10721709  0.80324620  0.89172461     0.20700
H2766       H  0.05273076  0.85312014  0.88270842     0.19100
H2767       H  0.06302474  0.84761238  0.84142418     0.19000
H2768       H  0.10017871  0.81253505  0.93317473     0.14900
C2769       C  0.12578705  0.92135937  0.97022159     0.30300
C2770       C  0.14213206  0.93107626  0.96161505    -0.36000
C2771       C  0.14395771  0.95143586  0.96592584     0.16300
C2772       C  0.13084821  0.96117635  0.97822540     0.22100
C2773       C  0.11456989  0.95160330  0.98655035    -0.34200
C2774       C  0.11246752  0.93161122  0.98184532     0.16200
O2775       O  0.12093576  0.90244915  0.96837202    -0.26200
C2776       C  0.10408594  0.90099892  0.97855175     0.06000
C2777       C  0.09815029  0.91865351  0.98713533    -0.31100
O2778       O  0.13490659  0.98005181  0.98024636    -0.22900
C2779       C  0.15069167  0.98281840  0.96893253    -0.02900
C2780       C  0.15707481  0.96554160  0.95951691    -0.17300
H2781       H  0.15247554  0.92341306  0.95207161     0.20700
H2782       H  0.10403043  0.95934870  0.99581423     0.19100
H2783       H  0.08537828  0.92137101  0.99641974     0.19000
H2784       H  0.16925857  0.96374718  0.94927797     0.14900
C2785       C  0.12351158  0.96412171  0.18582970     0.30300
C2786       C  0.14309100  0.97015796  0.18260387    -0.36000
C2787       C  0.15758220  0.95976224  0.19313455     0.16300
C2788       C  0.15302727  0.94469093  0.20615463     0.22100
C2789       C  0.13346818  0.93859554  0.20930894    -0.34200
C2790       C  0.11900931  0.94881062  0.19858404     0.16200
O2791       O  0.10773550  0.97136985  0.17706795    -0.26200
C2792       C  0.09296659  0.96049848  0.18419281     0.06000
C2793       C  0.09906559  0.94618995  0.19763690    -0.31100
O2794       O  0.16884844  0.93681528  0.21423598    -0.22900
C2795       C  0.18374441  0.94680472  0.20616902    -0.02900
C2796       C  0.17768004  0.96126243  0.19286715    -0.17300
H2797       H  0.14677470  0.98189652  0.17234919     0.20700
H2798       H  0.12982576  0.92652327  0.21918498     0.19100
H2799       H  0.09016513  0.93531595  0.20531895     0.19000
H2800       H  0.18673182  0.97122327  0.18419036     0.14900
C2801       C  0.02330178  0.02390249  0.23236524     0.30300
C2802       C  0.02280191  0.04277538  0.24122288    -0.36000
C2803       C  0.02017020  0.04321012  0.26190278     0.16300
C2804       C  0.01845464  0.02624647  0.27314647     0.22100
C2805       C  0.01877213  0.00741947  0.26428855    -0.34200
C2806       C  0.02112662  0.00700250  0.24362051     0.16200
O2807       O  0.02617911  0.01993840  0.21335775    -0.26200
C2808       C  0.02560512  0.00022461  0.21242659     0.06000
C2809       C  0.02244955  0.99145987  0.23082535    -0.31100
O2810       O  0.01712882  0.03002318  0.29231693    -0.22900
C2811       C  0.01768658  0.04970720  0.29341431    -0.02900
C2812       C  0.01952612  0.05868683  0.27492553    -0.17300
H2813       H  0.02456901  0.05617580  0.23263229     0.20700
H2814       H  0.01751891  0.99400036  0.27294318     0.19100
H2815       H  0.02181485  0.97583631  0.23433932     0.19000
H2816       H  0.02098960  0.07430578  0.27165503     0.14900
C2817       C  0.07523971  0.89705016  0.06646331     0.30300
C2818       C  0.08023058  0.91492672  0.07603200    -0.36000
C2819       C  0.06815536  0.92046486  0.09209688     0.16300
C2820       C  0.05254420  0.90895998  0.09847606     0.22100
C2821       C  0.04750693  0.89124358  0.08887323    -0.34200
C2822       C  0.05934764  0.88587437  0.07271356     0.16200
O2823       O  0.08327303  0.88993895  0.05006995    -0.26200
C2824       C  0.07242807  0.87397487  0.04588784     0.06000
C2825       C  0.05726338  0.87086503  0.05939396    -0.31100
O2826       O  0.04327042  0.91671044  0.11379149    -0.22900
C2827       C  0.05278163  0.93360962  0.11719475    -0.02900
C2828       C  0.06838357  0.93683030  0.10409394    -0.17300
H2829       H  0.09229238  0.92414327  0.07094709     0.20700
H2830       H  0.03490827  0.88247378  0.09341707     0.19100
H2831       H  0.04550813  0.86000910  0.05862807     0.19000
H2832       H  0.07860301  0.94916141  0.10375820     0.14900
C2833       C  0.81405959  0.87936864  0.08579136     0.30300
C2834       C  0.80837906  0.89857997  0.09141653    -0.36000
C2835       C  0.81914139  0.91414083  0.08286698     0.16300
C2836       C  0.83421823  0.91099670  0.06944553     0.22100
C2837       C  0.83993624  0.89179057  0.06388045    -0.34200
C2838       C  0.82937301  0.87622943  0.07264409     0.16200
O2839       O  0.80664761  0.86268817  0.09267310    -0.26200
C2840       C  0.81743257  0.84867306  0.08394599     0.06000
C2841       C  0.83179719  0.85622280  0.07129697    -0.31100
O2842       O  0.84250654  0.92763416  0.06352525    -0.22900
C2843       C  0.83276674  0.94163672  0.07340807    -0.02900
C2844       C  0.81809412  0.93411869  0.08574039    -0.17300
H2845       H  0.79668732  0.90118849  0.10205204     0.20700
H2846       H  0.85205308  0.88916337  0.05374022     0.19100
H2847       H  0.84272345  0.84816902  0.06277919     0.19000
H2848       H  0.80827067  0.94218060  0.09551073     0.14900
C2849       C  0.93118778  0.98322594  0.10094428     0.30300
C2850       C  0.95171372  0.98563456  0.09949894    -0.36000
C2851       C  0.96267267  0.98033551  0.11628758     0.16300
C2852       C  0.95415354  0.97268067  0.13321276     0.22100
C2853       C  0.93356135  0.97041983  0.13472329    -0.34200
C2854       C  0.92252938  0.97618004  0.11806653     0.16200
O2855       O  0.91810505  0.98802952  0.08729682    -0.26200
C2856       C  0.90080823  0.98428740  0.09586166     0.06000
C2857       C  0.90262533  0.97694189  0.11503018    -0.31100
O2858       O  0.96734179  0.96860334  0.14706846    -0.22900
C2859       C  0.98442460  0.97410982  0.13897616    -0.02900
C2860       C  0.98238811  0.98154985  0.11990020    -0.17300
H2861       H  0.95862696  0.99161187  0.08634190     0.20700
H2862       H  0.92660880  0.96491305  0.14806242     0.19100
H2863       H  0.89096779  0.97305276  0.12529819     0.19000
H2864       H  0.99384904  0.98687274  0.11006014     0.14900
C2865       C  0.93809508  0.20666589  0.11997044     0.30300
C2866       C  0.92630239  0.21739380  0.13325587    -0.36000
C2867       C  0.93017165  0.21428083  0.15342438     0.16300
C2868       C  0.94441320  0.20128594  0.16017609     0.22100
C2869       C  0.95630512  0.19066186  0.14688675    -0.34200
C2870       C  0.95263616  0.19400222  0.12671158     0.16200
O2871       O  0.93683749  0.20699539  0.10044367    -0.26200
C2872       C  0.95094711  0.19455513  0.09465734     0.06000
C2873       C  0.96123574  0.18609212  0.11036276    -0.31100
O2874       O  0.94498624  0.20021573  0.17971214    -0.22900
C2875       C  0.93109758  0.21291885  0.18547583    -0.02900
C2876       C  0.92146754  0.22209175  0.16975842    -0.17300
H2877       H  0.91485259  0.22739249  0.12823794     0.20700
H2878       H  0.96755456  0.18043809  0.15190535     0.19100
H2879       H  0.97302753  0.17526677  0.10979145     0.19000
H2880       H  0.90940778  0.23261747  0.17031827     0.14900
C2881       C  0.97276761  0.12738195  0.96712683     0.30300
C2882       C  0.97815177  0.10876277  0.95968543    -0.36000
C2883       C  0.97376853  0.10533074  0.93972068     0.16300
C2884       C  0.96516660  0.11946863  0.92775324     0.22100
C2885       C  0.95943960  0.13800915  0.93530513    -0.34200
C2886       C  0.96342557  0.14128611  0.95544713     0.16200
O2887       O  0.97521976  0.13347825  0.98545469    -0.26200
C2888       C  0.96711244  0.15140883  0.98571098     0.06000
C2889       C  0.95941766  0.15709176  0.96747034    -0.31100
O2890       O  0.96378575  0.11359234  0.90918138    -0.22900
C2891       C  0.97113996  0.09531202  0.90942135    -0.02900
C2892       C  0.97744760  0.08930401  0.92803084    -0.17300
H2893       H  0.98527016  0.09772375  0.96884465     0.20700
H2894       H  0.95247154  0.14910834  0.92610649     0.19100
H2895       H  0.95180584  0.17067678  0.96373101     0.19000
H2896       H  0.98479468  0.07564707  0.93204824     0.14900
C2897       C  0.88236000  0.08012361  0.05567375     0.30300
C2898       C  0.88568390  0.09677194  0.04374197    -0.36000
C2899       C  0.90209885  0.10844431  0.04873345     0.16300
C2900       C  0.91466630  0.10394567  0.06419499     0.22100
C2901       C  0.91107006  0.08750829  0.07644384    -0.34200
C2902       C  0.89439284  0.07599857  0.07166670     0.16200
O2903       O  0.86881842  0.06636052  0.05269038    -0.26200
C2904       C  0.87178405  0.05354496  0.06732833     0.06000
C2905       C  0.88746088  0.05878345  0.07962187    -0.31100
O2906       O  0.92966272  0.11647291  0.06554148    -0.22900
C2907       C  0.92640619  0.12928219  0.05091178    -0.02900
C2908       C  0.90942613  0.12505386  0.04008858    -0.17300
H2909       H  0.87637395  0.10014819  0.03115281     0.20700
H2910       H  0.92078047  0.08374512  0.08861006     0.19100
H2911       H  0.89374977  0.05033075  0.09168829     0.19000
H2912       H  0.90352485  0.13295302  0.02746177     0.14900
C2913       C  0.67885893  0.91474381  0.96365358     0.30300
C2914       C  0.67381437  0.89484179  0.96706998    -0.36000
C2915       C  0.68241242  0.88092276  0.95420974     0.16300
C2916       C  0.69524638  0.88628879  0.93924598     0.22100
C2917       C  0.70016995  0.90611300  0.93577343    -0.34200
C2918       C  0.69147742  0.91997935  0.94846916     0.16200
O2919       O  0.67188331  0.93030544  0.97320457    -0.26200
C2920       C  0.68012777  0.94562280  0.96393466     0.06000
C2921       C  0.69246235  0.94006944  0.94844947    -0.31100
O2922       O  0.70173608  0.87100644  0.92907247    -0.22900
C2923       C  0.69285651  0.85558882  0.93743269    -0.02900
C2924       C  0.68053780  0.86080910  0.95311686    -0.17300
H2925       H  0.66368975  0.89055631  0.97871477     0.20700
H2926       H  0.70993741  0.91043852  0.92383886     0.19100
H2927       H  0.70037488  0.94949604  0.93819801     0.19000
H2928       H  0.67174324  0.85120283  0.96243396     0.14900
C2929       C  0.74244489  0.01700840  0.00770526     0.30300
C2930       C  0.76296315  0.01781749  0.00464134    -0.36000
C2931       C  0.77479645  0.01651042  0.02165577     0.16300
C2932       C  0.76698404  0.01495095  0.04047369     0.22100
C2933       C  0.74641954  0.01432600  0.04355472    -0.34200
C2934       C  0.73456637  0.01520664  0.02647377     0.16200
O2935       O  0.72884321  0.01616447  0.99374423    -0.26200
C2936       C  0.71197700  0.01363254  0.00359112     0.06000
C2937       C  0.71461301  0.01299087  0.02404757    -0.31100
O2938       O  0.78077685  0.01257422  0.05412109    -0.22900
C2939       C  0.79763427  0.01243559  0.04390242    -0.02900
C2940       C  0.79479501  0.01487391  0.02363216    -0.17300
H2941       H  0.76927569  0.01847565  0.98992295     0.20700
H2942       H  0.74013558  0.01235970  0.05816407     0.19100
H2943       H  0.70358869  0.01037793  0.03536684     0.19000
H2944       H  0.80579940  0.01463557  0.01199083     0.14900
C2945       C  0.56843143  0.20335475  0.87028227     0.30300
C2946       C  0.55653422  0.19342152  0.88404934    -0.36000
C2947       C  0.56069257  0.19719780  0.90403413     0.16300
C2948       C  0.57562593  0.20975376  0.91012389     0.22100
C2949       C  0.58735014  0.21992296  0.89633393    -0.34200
C2950       C  0.58308241  0.21626990  0.87631688     0.16200
O2951       O  0.56762432  0.20140723  0.85086983    -0.26200
C2952       C  0.58177712  0.21341578  0.84436872     0.06000
C2953       C  0.59183290  0.22312559  0.85951777    -0.31100
O2954       O  0.57748852  0.21033936  0.92958065    -0.22900
C2955       C  0.56344637  0.19812178  0.93597867    -0.02900
C2956       C  0.55249085  0.18961518  0.92074473    -0.17300
H2957       H  0.54505690  0.18320875  0.87950159     0.20700
H2958       H  0.59916467  0.22973947  0.90088245     0.19100
H2959       H  0.60418297  0.23325069  0.85831936     0.19000
H2960       H  0.54058154  0.17895914  0.92183530     0.14900
C2961       C  0.60985203  0.11469378  0.98149837     0.30300
C2962       C  0.62849941  0.10638763  0.97763591    -0.36000
C2963       C  0.62971161  0.08569055  0.97903085     0.16300
C2964       C  0.61375846  0.07408392  0.98431571     0.22100
C2965       C  0.59506743  0.08232882  0.98780307    -0.34200
C2966       C  0.59377180  0.10293426  0.98599429     0.16200
O2967       O  0.60540475  0.13371179  0.98143178    -0.26200
C2968       C  0.58616899  0.13403865  0.98556229     0.06000
C2969       C  0.57811886  0.11533127  0.98842695    -0.31100
O2970       O  0.61824800  0.05515714  0.98522576    -0.22900
C2971       C  0.63722257  0.05454066  0.98013877    -0.02900
C2972       C  0.64516316  0.07305411  0.97594285    -0.17300
H2973       H  0.64115426  0.11542021  0.97382571     0.20700
H2974       H  0.58241925  0.07329751  0.99165083     0.19100
H2975       H  0.56307150  0.11151129  0.99232953     0.19000
H2976       H  0.66009690  0.07663537  0.97144106     0.14900
C2977       C  0.61166797  0.10123783  0.20307137     0.30300
C2978       C  0.62669428  0.11170708  0.21291935    -0.36000
C2979       C  0.64616784  0.10620632  0.20822929     0.16300
C2980       C  0.65058242  0.09159007  0.19460452     0.22100
C2981       C  0.63557138  0.08097674  0.18493614    -0.34200
C2982       C  0.61611912  0.08631994  0.18979272     0.16200
O2983       O  0.59244141  0.10430008  0.20472734    -0.26200
C2984       C  0.58449636  0.09101312  0.19249384     0.06000
C2985       C  0.59853753  0.07938765  0.18288520    -0.31100
O2986       O  0.66978856  0.08939483  0.19191089    -0.22900
C2987       C  0.67780601  0.10260264  0.20416522    -0.02900
C2988       C  0.66381690  0.11344153  0.21473582    -0.17300
H2989       H  0.62344032  0.12345483  0.22334831     0.20700
H2990       H  0.63882812  0.06949440  0.17421483     0.19100
H2991       H  0.59613024  0.06788092  0.17196000     0.19000
H2992       H  0.66631073  0.12527503  0.22528370     0.14900
C2993       C  0.54498461  0.13885512  0.10958531     0.30300
C2994       C  0.55281074  0.15594431  0.10052154    -0.36000
C2995       C  0.55014193  0.15736184  0.07988484     0.16300
C2996       C  0.54010778  0.14309678  0.06920560     0.22100
C2997       C  0.53266468  0.12598321  0.07814328    -0.34200
C2998       C  0.53567565  0.12438629  0.09853640     0.16200
O2999       O  0.54540544  0.13445265  0.12865456    -0.26200
C3000       C  0.53662134  0.11678891  0.12957960     0.06000
C3001       C  0.53038021  0.10979566  0.11129681    -0.31100
O3002       O  0.53878486  0.14736499  0.05030482    -0.22900
C3003       C  0.54830163  0.16446822  0.04854037    -0.02900
C3004       C  0.55589913  0.17144395  0.06644371    -0.17300
H3005       H  0.56041081  0.16728141  0.10893553     0.20700
H3006       H  0.52505230  0.11465215  0.06972598     0.19100
H3007       H  0.52259391  0.09617366  0.10800148     0.19000
H3008       H  0.56423748  0.18486091  0.06913897     0.14900
C3009       C  0.36845551  0.94920329  0.82111961     0.30300
C3010       C  0.38812272  0.94446236  0.81661856    -0.36000
C3011       C  0.40254725  0.95434730  0.82772226     0.16300
C3012       C  0.39792019  0.96811486  0.84213152     0.22100
C3013       C  0.37820817  0.97274972  0.84676207    -0.34200
C3014       C  0.36374720  0.96270348  0.83575768     0.16200
O3015       O  0.35271263  0.94131204  0.81286533    -0.26200
C3016       C  0.33766923  0.94972730  0.82235740     0.06000
C3017       C  0.34359562  0.96316122  0.83683838    -0.31100
O3018       O  0.41376856  0.97542782  0.85078716    -0.22900
C3019       C  0.42869584  0.96612030  0.84190398    -0.02900
C3020       C  0.42261904  0.95277085  0.82746402    -0.17300
H3021       H  0.39189502  0.93362585  0.80540590     0.20700
H3022       H  0.37442935  0.98325616  0.85828253     0.19100
H3023       H  0.33444315  0.97169514  0.84685838     0.19000
H3024       H  0.43164718  0.94321082  0.81829301     0.14900
C3025       C  0.55510281  0.98309171  0.91192359     0.30300
C3026       C  0.56231575  0.98686038  0.93101895    -0.36000
C3027       C  0.58283109  0.98566602  0.93334686     0.16300
C3028       C  0.59545560  0.98140432  0.91785163     0.22100
C3029       C  0.58816785  0.97705038  0.89880663    -0.34200
C3030       C  0.56753501  0.97794387  0.89653708     0.16200
O3031       O  0.53649931  0.98416018  0.90641549    -0.26200
C3032       C  0.53683239  0.97932786  0.88732363     0.06000
C3033       C  0.55572121  0.97507233  0.88032080    -0.31100
O3034       O  0.61421294  0.98277377  0.92306114    -0.22900
C3035       C  0.61350306  0.98757579  0.94220258    -0.02900
C3036       C  0.59437304  0.98937643  0.94944368    -0.17300
H3037       H  0.55261319  0.99085107  0.94313604     0.20700
H3038       H  0.59791127  0.97364343  0.88654901     0.19100
H3039       H  0.56009819  0.97092934  0.86545921     0.19000
H3040       H  0.58970809  0.99385679  0.96412332     0.14900
C3041       C  0.30685172  0.16609953  0.09135356     0.30300
C3042       C  0.30191632  0.14673521  0.09696698    -0.36000
C3043       C  0.31328929  0.13167114  0.08840362     0.16300
C3044       C  0.32813573  0.13546119  0.07489042     0.22100
C3045       C  0.33297447  0.15478838  0.06917284    -0.34200
C3046       C  0.32191297  0.16985786  0.07807097     0.16200
O3047       O  0.29917032  0.18242479  0.09866921    -0.26200
C3048       C  0.30955532  0.19678061  0.09011939     0.06000
C3049       C  0.32387984  0.18988734  0.07708492    -0.31100
O3050       O  0.33736936  0.11931058  0.06927709    -0.22900
C3051       C  0.32851780  0.10501218  0.07946056    -0.02900
C3052       C  0.31338482  0.11175038  0.09163592    -0.17300
H3053       H  0.29052548  0.14369684  0.10780481     0.20700
H3054       H  0.34499557  0.15787443  0.05905346     0.19100
H3055       H  0.33455401  0.19835235  0.06866901     0.19000
H3056       H  0.30408716  0.10328716  0.10155385     0.14900
C3057       C  0.27931940  0.03436567  0.01890458     0.30300
C3058       C  0.27067039  0.03237592  0.00007528    -0.36000
C3059       C  0.24989532  0.03238551  0.99950148     0.16300
C3060       C  0.23838403  0.03440959  0.01626579     0.22100
C3061       C  0.24701379  0.03611760  0.03511123    -0.34200
C3062       C  0.26776811  0.03589101  0.03569567     0.16200
O3063       O  0.29844639  0.03562005  0.02283316    -0.26200
C3064       C  0.29913831  0.03767345  0.04244737     0.06000
C3065       C  0.28048584  0.03785172  0.05119364    -0.31100
O3066       O  0.21929016  0.03510539  0.01219176    -0.22900
C3067       C  0.21851763  0.03329900  0.99255538    -0.02900
C3068       C  0.23712457  0.03147301  0.98390053    -0.17300
H3069       H  0.27951489  0.03126111  0.98675988     0.20700
H3070       H  0.23817249  0.03784850  0.04836664     0.19100
H3071       H  0.27682891  0.03991233  0.06667520     0.19000
H3072       H  0.24072837  0.03034704  0.96831559     0.14900
C3073       C  0.41874664  0.07921928  0.12061583     0.30300
C3074       C  0.43311641  0.09344406  0.12572789    -0.36000
C3075       C  0.44578477  0.08846190  0.14151664     0.16300
C3076       C  0.44461930  0.07053624  0.15123932     0.22100
C3077       C  0.43003570  0.05656904  0.14644075    -0.34200
C3078       C  0.41720797  0.06168746  0.13097658     0.16200
O3079       O  0.40560817  0.08047727  0.10612500    -0.26200
C3080       C  0.39539888  0.06364285  0.10752870     0.06000
C3081       C  0.40192323  0.05148398  0.12276562    -0.31100
O3082       O  0.45931495  0.06782192  0.16377112    -0.22900
C3083       C  0.46981243  0.08443931  0.16261455    -0.02900
C3084       C  0.46203230  0.09790121  0.14906460    -0.17300
H3085       H  0.43459481  0.10722225  0.11769739     0.20700
H3086       H  0.42909891  0.04242360  0.15389819     0.19100
H3087       H  0.39627325  0.03711207  0.12704054     0.19000
H3088       H  0.46854400  0.11164965  0.14404195     0.14900
C3089       C  0.42716311  0.83074309  0.15532427     0.30300
C3090       C  0.42023453  0.82584359  0.13635475    -0.36000
C3091       C  0.42885746  0.83620868  0.12061227     0.16300
C3092       C  0.44339554  0.85030086  0.12336924     0.22100
C3093       C  0.45011859  0.85539491  0.14236278    -0.34200
C3094       C  0.44140971  0.84512117  0.15811700     0.16200
O3095       O  0.42114030  0.82292468  0.17210920    -0.26200
C3096       C  0.43156034  0.83248624  0.18583670     0.06000
C3097       C  0.44436477  0.84654948  0.17803560    -0.31100
O3098       O  0.44959948  0.85795319  0.10656205    -0.22900
C3099       C  0.43880728  0.84876126  0.09287971    -0.02900
C3100       C  0.42555409  0.83513848  0.10073560    -0.17300
H3101       H  0.40891651  0.81474346  0.13404573     0.20700
H3102       H  0.46135046  0.86657859  0.14468246     0.19100
H3103       H  0.45427481  0.85640323  0.18588746     0.19000
H3104       H  0.41511357  0.82580411  0.09293756     0.14900
C3105       C  0.46054409  0.89396719  0.95418888     0.30300
C3106       C  0.47365291  0.89727372  0.93843585    -0.36000
C3107       C  0.47003611  0.91420475  0.92699625     0.16300
C3108       C  0.45476226  0.92719060  0.93092444     0.22100
C3109       C  0.44134123  0.92359606  0.94637151    -0.34200
C3110       C  0.44474969  0.90646294  0.95761820     0.16200
O3111       O  0.46240110  0.88031551  0.96801623    -0.26200
C3112       C  0.44722682  0.88370348  0.98008974     0.06000
C3113       C  0.43570223  0.89972411  0.97432570    -0.31100
O3114       O  0.45476685  0.94262327  0.91892430    -0.22900
C3115       C  0.47007774  0.93928076  0.90699915    -0.02900
C3116       C  0.48003029  0.92177798  0.91125900    -0.17300
H3117       H  0.48616315  0.88766591  0.93567309     0.20700
H3118       H  0.42938205  0.93371044  0.94971101     0.19100
H3119       H  0.42364902  0.90656432  0.98236896     0.19000
H3120       H  0.49290785  0.91567853  0.90393769     0.14900
C3121       C  0.37778078  0.96563137  0.06629724     0.30300
C3122       C  0.37584168  0.94499140  0.06470942    -0.36000
C3123       C  0.39296471  0.93466980  0.05905327     0.16300
C3124       C  0.41083845  0.94395035  0.05561433     0.22100
C3125       C  0.41275666  0.96451153  0.05713430    -0.34200
C3126       C  0.39559886  0.97482547  0.06236622     0.16200
O3127       O  0.36353948  0.97840647  0.07038457    -0.26200
C3128       C  0.37244144  0.99589464  0.06872973     0.06000
C3129       C  0.39230383  0.99454546  0.06377066    -0.31100
O3130       O  0.42486217  0.93152457  0.05025557    -0.22900
C3131       C  0.41581270  0.91407467  0.05000620    -0.02900
C3132       C  0.39595673  0.91509615  0.05531377    -0.17300
H3133       H  0.36188503  0.93756523  0.06721190     0.20700
H3134       H  0.42654918  0.97199826  0.05397402     0.19100
H3135       H  0.40269307  0.00646583  0.06118750     0.19000
H3136       H  0.38531560  0.90315645  0.05622239     0.14900
C3137       C  0.69790747  0.16248433  0.59006410     0.30300
C3138       C  0.70335426  0.14309329  0.59516827    -0.36000
C3139       C  0.69312665  0.12791795  0.58538107     0.16300
C3140       C  0.67876950  0.13167817  0.57135209     0.22100
C3141       C  0.67328061  0.15104375  0.56630867    -0.34200
C3142       C  0.68330798  0.16619698  0.57627709     0.16200
O3143       O  0.70503220  0.17883347  0.59789461    -0.26200
C3144       C  0.69478771  0.19318646  0.58914192     0.06000
C3145       C  0.68102270  0.18624055  0.57553059    -0.31100
O3146       O  0.67095875  0.11538013  0.56415342    -0.22900
C3147       C  0.68026264  0.10095424  0.57376103    -0.02900
C3148       C  0.69422015  0.10781621  0.58724433    -0.17300
H3149       H  0.71452822  0.14007425  0.60623406     0.20700
H3150       H  0.66176688  0.15405948  0.55559672     0.19100
H3151       H  0.67065984  0.19467217  0.56670836     0.19000
H3152       H  0.70364994  0.09929199  0.59697867     0.14900
C3153       C  0.76506233  0.03331644  0.48996647     0.30300
C3154       C  0.74433872  0.03417740  0.48849510    -0.36000
C3155       C  0.73386484  0.03455001  0.50646006     0.16300
C3156       C  0.74315611  0.03376108  0.52463216     0.22100
C3157       C  0.76389539  0.03290821  0.52610981    -0.34200
C3158       C  0.77438969  0.03287643  0.50813582     0.16200
O3159       O  0.77767911  0.03425364  0.47508805    -0.26200
C3160       C  0.79537655  0.03459823  0.48375285     0.06000
C3161       C  0.79424178  0.03373849  0.50434285    -0.31100
O3162       O  0.73054605  0.03480465  0.53953102    -0.22900
C3163       C  0.71291587  0.03644399  0.53084776    -0.02900
C3164       C  0.71409263  0.03642637  0.51025157    -0.17300
H3165       H  0.73692735  0.03511786  0.47431886     0.20700
H3166       H  0.77134327  0.03286577  0.54029990     0.19100
H3167       H  0.80622014  0.03450643  0.51494765     0.19000
H3168       H  0.70216991  0.03786579  0.49965904     0.14900
C3169       C  0.40087366  0.08786629  0.69904221     0.30300
C3170       C  0.38624618  0.09851486  0.70926452    -0.36000
C3171       C  0.36662563  0.09428533  0.70397186     0.16300
C3172       C  0.36173270  0.08065781  0.68950219     0.22100
C3173       C  0.37631851  0.06973811  0.67958542    -0.34200
C3174       C  0.39590136  0.07383933  0.68499126     0.16200
O3175       O  0.42018068  0.09025967  0.70070528    -0.26200
C3176       C  0.42761269  0.07738626  0.68773773     0.06000
C3177       C  0.41319440  0.06670125  0.67764676    -0.31100
O3178       O  0.34257746  0.08003952  0.68594431    -0.22900
C3179       C  0.33507111  0.09327232  0.69846152    -0.02900
C3180       C  0.34931377  0.10250365  0.71014431    -0.17300
H3181       H  0.38991255  0.10967754  0.72018963     0.20700
H3182       H  0.37268100  0.05915580  0.66808683     0.19100
H3183       H  0.41518442  0.05588430  0.66595916     0.19000
H3184       H  0.34726351  0.11415550  0.72098684     0.14900
C3185       C  0.49620574  0.04380576  0.75727959     0.30300
C3186       C  0.49468561  0.04672289  0.77790880    -0.36000
C3187       C  0.49583071  0.02959761  0.78972107     0.16300
C3188       C  0.49857978  0.01099653  0.78169575     0.22100
C3189       C  0.50009069  0.00809193  0.76115894    -0.34200
C3190       C  0.49864712  0.02510592  0.74939051     0.16200
O3191       O  0.49443705  0.05750479  0.74341884    -0.26200
C3192       C  0.49559638  0.04740142  0.72645545     0.06000
C3193       C  0.49819796  0.02717410  0.72930562    -0.31100
O3194       O  0.49836257  0.99693635  0.79517914    -0.22900
C3195       C  0.49532938  0.00646996  0.81218742    -0.02900
C3196       C  0.49362677  0.02690364  0.80973465    -0.17300
H3197       H  0.49219679  0.06124041  0.78425063     0.20700
H3198       H  0.50167159  0.99346683  0.75476510     0.19100
H3199       H  0.49908065  0.01562745  0.71819610     0.19000
H3200       H  0.49055022  0.03800055  0.82090405     0.14900
C3201       C  0.59145412  0.06826841  0.61094887     0.30300
C3202       C  0.57587268  0.08121749  0.61571692    -0.36000
C3203       C  0.56389178  0.07563926  0.63179603     0.16300
C3204       C  0.56670968  0.05823416  0.64210660     0.22100
C3205       C  0.58251160  0.04551121  0.63761394    -0.34200
C3206       C  0.59474955  0.05132298  0.62186420     0.16200
O3207       O  0.60431327  0.07038989  0.59633821    -0.26200
C3208       C  0.61619092  0.05476496  0.59817284     0.06000
C3209       C  0.61099533  0.04247807  0.61385800    -0.31100
O3210       O  0.55258298  0.05489679  0.65518481    -0.22900
C3211       C  0.54089527  0.07068659  0.65373829    -0.02900
C3212       C  0.54723593  0.08411223  0.63946186    -0.17300
H3213       H  0.57311618  0.09456885  0.60731325     0.20700
H3214       H  0.58488679  0.03183686  0.64560748     0.19100
H3215       H  0.61807231  0.02888498  0.61851908     0.19000
H3216       H  0.53971511  0.09728828  0.63432433     0.14900
C3217       C  0.33118017  0.87538800  0.45492390     0.30300
C3218       C  0.34175054  0.89033974  0.46465527    -0.36000
C3219       C  0.33649811  0.90977696  0.45978518     0.16300
C3220       C  0.32197253  0.91426415  0.44613683     0.22100
C3221       C  0.31112077  0.89929021  0.43666770    -0.34200
C3222       C  0.31626756  0.87981605  0.44167526     0.16200
O3223       O  0.33463485  0.85624247  0.45618153    -0.26200
C3224       C  0.32161542  0.84828886  0.44376200     0.06000
C3225       C  0.30967740  0.86221107  0.43443253    -0.31100
O3226       O  0.32039238  0.93346946  0.44298177    -0.22900
C3227       C  0.33391424  0.94130428  0.45497231    -0.02900
C3228       C  0.34429938  0.92728815  0.46583405    -0.17300
H3229       H  0.35361536  0.88704911  0.47489113     0.20700
H3230       H  0.29984002  0.90257336  0.42578727     0.19100
H3231       H  0.29857127  0.85976421  0.42314251     0.19000
H3232       H  0.35631140  0.92965530  0.47616908     0.14900
C3233       C  0.23913183  0.00635278  0.52132385     0.30300
C3234       C  0.25957531  0.00841215  0.52425435    -0.36000
C3235       C  0.27130147  0.00810685  0.50712989     0.16300
C3236       C  0.26343425  0.00612909  0.48836920     0.22100
C3237       C  0.24295589  0.00396325  0.48544496    -0.34200
C3238       C  0.23121998  0.00405401  0.50261772     0.16200
O3239       O  0.22559819  0.00562228  0.53533060    -0.26200
C3240       C  0.20874456  0.00269578  0.52557269     0.06000
C3241       C  0.21131729  0.00153755  0.50513498    -0.31100
O3242       O  0.27719414  0.00563284  0.47450950    -0.22900
C3243       C  0.29409935  0.00719445  0.48452438    -0.02900
C3244       C  0.29132577  0.00874247  0.50489263    -0.17300
H3245       H  0.26592455  0.00977545  0.53891171     0.20700
H3246       H  0.23666372  0.00195740  0.47083762     0.19100
H3247       H  0.20022990  0.99892366  0.49386909     0.19000
H3248       H  0.30245525  0.00965946  0.51638068     0.14900
C3249       C  0.42689034  0.21953283  0.37518057     0.30300
C3250       C  0.42210012  0.22278653  0.39517590    -0.36000
C3251       C  0.43341907  0.21230016  0.40906675     0.16300
C3252       C  0.44852696  0.19967491  0.40361564     0.22100
C3253       C  0.45327957  0.19640556  0.38365842    -0.34200
C3254       C  0.44181814  0.20667396  0.36978657     0.16200
O3255       O  0.41777279  0.22718116  0.35972049    -0.26200
C3256       C  0.42686790  0.21896548  0.34425999     0.06000
C3257       C  0.44192467  0.20604873  0.34962247    -0.31100
O3258       O  0.45672355  0.19082889  0.41891039    -0.22900
C3259       C  0.44672471  0.19777017  0.43440031    -0.02900
C3260       C  0.43202527  0.21121268  0.42920134    -0.17300
H3261       H  0.41011119  0.23245852  0.39956407     0.20700
H3262       H  0.46480052  0.18618836  0.37924718     0.19100
H3263       H  0.45133895  0.19727589  0.34006219     0.19000
H3264       H  0.42152162  0.21861551  0.43877936     0.14900
C3265       C  0.46591498  0.12272376  0.60211134     0.30300
C3266       C  0.45904607  0.14023763  0.59324337    -0.36000
C3267       C  0.46172519  0.14168752  0.57266734     0.16300
C3268       C  0.47084675  0.12705424  0.56167272     0.22100
C3269       C  0.47741501  0.10943645  0.57048191    -0.34200
C3270       C  0.47440071  0.10782573  0.59096310     0.16200
O3271       O  0.46553890  0.11849020  0.62118638    -0.55000
C3272       C  0.47350780  0.10048400  0.62218225     0.06000
C3273       C  0.47918029  0.09305796  0.60382931    -0.31100
O3274       O  0.47215236  0.13159488  0.54273731    -0.22900
C3275       C  0.46353147  0.14925767  0.54148235    -0.02900
C3276       C  0.45666821  0.15626001  0.55963018    -0.17300
H3277       H  0.45217882  0.15193616  0.60179376     0.20700
H3278       H  0.48441502  0.09780076  0.56195390     0.19100
H3279       H  0.48651638  0.07917968  0.60058986     0.19000
H3280       H  0.44910941  0.17004897  0.56272827     0.14900
C3281       C  0.38482805  0.07799524  0.45390444     0.30300
C3282       C  0.40177793  0.08844039  0.44799193    -0.36000
C3283       C  0.40641882  0.10536492  0.45914775     0.16300
C3284       C  0.39487992  0.11187390  0.47472012     0.22100
C3285       C  0.37795377  0.10141629  0.48065005    -0.34200
C3286       C  0.37358085  0.08422305  0.46980596     0.16200
O3287       O  0.37898081  0.06072046  0.44689317    -0.26200
C3288       C  0.36383868  0.05578809  0.45845746     0.06000
C3289       C  0.35990851  0.06975838  0.47307951    -0.31100
O3290       O  0.40234701  0.12762621  0.48355325    -0.22900
C3291       C  0.41905009  0.13106365  0.47373065    -0.02900
C3292       C  0.42237197  0.11767919  0.45839710    -0.17300
H3293       H  0.41118564  0.08322493  0.43610816     0.20700
H3294       H  0.36928745  0.10590853  0.49336470     0.19100
H3295       H  0.34939701  0.06875034  0.48512735     0.19000
H3296       H  0.43484023  0.11699355  0.44836645     0.14900
C3297       C  0.65515736  0.95787936  0.33535940     0.30300
C3298       C  0.64219059  0.96840992  0.34764657    -0.36000
C3299       C  0.62201663  0.96600268  0.34358635     0.16300
C3300       C  0.61498047  0.95383838  0.32869914     0.22100
C3301       C  0.62796074  0.94340526  0.31632255    -0.34200
C3302       C  0.64815388  0.94604384  0.32019515     0.16200
O3303       O  0.67461051  0.95763507  0.33670063    -0.26200
C3304       C  0.68009235  0.94564404  0.32206091     0.06000
C3305       C  0.66427524  0.93806149  0.31128271    -0.31100
O3306       O  0.59548376  0.95339785  0.32795618    -0.22900
C3307       C  0.59005409  0.96568727  0.34237297    -0.02900
C3308       C  0.60592290  0.97393922  0.35255705    -0.17300
H3309       H  0.64744624  0.97776020  0.35957613     0.20700
H3310       H  0.62270011  0.93384703  0.30456203     0.19100
H3311       H  0.66461598  0.92774301  0.29899348     0.19000
H3312       H  0.60559749  0.98399273  0.36506551     0.14900
C3313       C  0.51595137  0.03540450  0.25207227     0.30300
C3314       C  0.51439192  0.01668422  0.26093541    -0.36000
C3315       C  0.51747315  0.01600819  0.28148967     0.16300
C3316       C  0.52190444  0.03255721  0.29266315     0.22100
C3317       C  0.52309003  0.05138368  0.28383417    -0.34200
C3318       C  0.51985753  0.05209211  0.26324626     0.16200
O3319       O  0.51502105  0.03918495  0.23289701    -0.26200
C3320       C  0.51804965  0.05862968  0.23173158     0.06000
C3321       C  0.52100643  0.06745161  0.25017586    -0.31100
O3322       O  0.52544729  0.02821990  0.31146534    -0.22900
C3323       C  0.52308012  0.00863606  0.31232466    -0.02900
C3324       C  0.51802468  0.00034203  0.29411095    -0.17300
H3325       H  0.51154023  0.00345845  0.25231473     0.20700
H3326       H  0.52678997  0.06448301  0.29231953     0.19100
H3327       H  0.52457637  0.08275752  0.25335433     0.19000
H3328       H  0.51577762  0.98486704  0.29054571     0.14900
C3329       C  0.42799627  0.98934348  0.42345724     0.30300
C3330       C  0.44845716  0.99239593  0.42449094    -0.36000
C3331       C  0.45919269  0.98770062  0.40736442     0.16300
C3332       C  0.45055025  0.98004835  0.39047296     0.22100
C3333       C  0.43000594  0.97720853  0.38935357    -0.34200
C3334       C  0.41918260  0.98231691  0.40638114     0.16200
O3335       O  0.41510444  0.99324880  0.43758706    -0.26200
C3336       C  0.39775577  0.98893886  0.42938951     0.06000
C3337       C  0.39936351  0.98211866  0.40997823    -0.31100
O3338       O  0.46360922  0.97620883  0.37640509    -0.22900
C3339       C  0.48071961  0.98187496  0.38434263    -0.02900
C3340       C  0.47882510  0.98920732  0.40350230    -0.17300
H3341       H  0.45549580  0.99824154  0.43766173     0.20700
H3342       H  0.42294216  0.97158578  0.37610210     0.19100
H3343       H  0.38761581  0.97784511  0.39995485     0.19000
H3344       H  0.49036395  0.99443491  0.41332202     0.14900
C3345       C  0.56315641  0.84441726  0.65661549     0.30300
C3346       C  0.55307122  0.85442753  0.64147539    -0.36000
C3347       C  0.55747384  0.84839672  0.62205444     0.16300
C3348       C  0.57096315  0.83363973  0.61779560     0.22100
C3349       C  0.58061698  0.82327846  0.63292929    -0.34200
C3350       C  0.57614694  0.82923469  0.65231406     0.16200
O3351       O  0.56260219  0.84867073  0.67572163    -0.26200
C3352       C  0.57524139  0.83586125  0.68370156     0.06000
C3353       C  0.58395222  0.82333721  0.66985311    -0.31100
O3354       O  0.57429561  0.83174969  0.59863048    -0.22900
C3355       C  0.56258382  0.84528914  0.59048987    -0.02900
C3356       C  0.55163638  0.85595065  0.60432950    -0.17300
H3357       H  0.54309865  0.86657772  0.64456970     0.20700
H3358       H  0.59146346  0.81191404  0.62979632     0.19100
H3359       H  0.59518560  0.81218197  0.67227222     0.19000
H3360       H  0.54174387  0.86827773  0.60174160     0.14900
C3361       C  0.55043653  0.91358560  0.42286083     0.30300
C3362       C  0.54791274  0.89445264  0.43060029    -0.36000
C3363       C  0.55736850  0.89061434  0.44869636     0.16300
C3364       C  0.56869207  0.90460967  0.45838528     0.22100
C3365       C  0.57126000  0.92371823  0.45061667    -0.34200
C3366       C  0.56159413  0.92762865  0.43266436     0.16200
O3367       O  0.54234019  0.92055952  0.40652901    -0.26200
C3368       C  0.54821790  0.93937231  0.40594172     0.06000
C3369       C  0.56021765  0.94461790  0.42184854    -0.31100
O3370       O  0.57450594  0.89858674  0.47600157    -0.22900
C3371       C  0.56700754  0.88044033  0.47760898    -0.02900
C3372       C  0.55608390  0.87473091  0.46111429    -0.17300
H3373       H  0.53865353  0.88355043  0.42336326     0.20700
H3374       H  0.57955161  0.93499411  0.45843954     0.19100
H3375       H  0.56696193  0.95883021  0.42493550     0.19000
H3376       H  0.54708615  0.86159182  0.45931953     0.14900
C3377       C  0.60014824  0.93953858  0.54693863     0.30300
C3378       C  0.59945197  0.96015026  0.54498938    -0.36000
C3379       C  0.61698844  0.97027531  0.54931727     0.16300
C3380       C  0.63402345  0.96093764  0.55560588     0.22100
C3381       C  0.63480178  0.94020977  0.55731040    -0.34200
C3382       C  0.61729494  0.92999741  0.55259878     0.16200
O3383       O  0.58555400  0.92718408  0.54311424    -0.26200
C3384       C  0.59345829  0.90943753  0.54614292     0.06000
C3385       C  0.61318825  0.91024551  0.55200834    -0.31100
O3386       O  0.64850053  0.97358025  0.55940070    -0.22900
C3387       C  0.64061198  0.99110523  0.55504024    -0.02900
C3388       C  0.62113308  0.98988517  0.54864150    -0.17300
H3389       H  0.58620138  0.96776126  0.54022628     0.20700
H3390       H  0.64811849  0.93258187  0.56184652     0.19100
H3391       H  0.62310053  0.89804683  0.55507185     0.19000
H3392       H  0.61129096  0.00185031  0.54457315     0.14900
C3393       C  0.32305017  0.37821290  0.57552649     0.30300
C3394       C  0.33326397  0.39247393  0.56455219    -0.36000
C3395       C  0.33024056  0.41215213  0.57032398     0.16300
C3396       C  0.31822912  0.41752988  0.58598275     0.22100
C3397       C  0.30782291  0.40326159  0.59684512    -0.34200
C3398       C  0.31061627  0.38356274  0.59086784     0.16200
O3399       O  0.32423619  0.35888115  0.57313299    -0.26200
C3400       C  0.31212645  0.35180995  0.58689308     0.06000
C3401       C  0.30319625  0.36645163  0.59831563    -0.31100
O3402       O  0.31823878  0.43680942  0.58920224    -0.22900
C3403       C  0.33025172  0.44376117  0.57525754    -0.02900
C3404       C  0.33806864  0.42911319  0.56308725    -0.17300
H3405       H  0.34305151  0.38849925  0.55249913     0.20700
H3406       H  0.29837600  0.40720694  0.60917738     0.19100
H3407       H  0.29329726  0.36466640  0.61078924     0.19000
H3408       H  0.34842335  0.43071728  0.55096443     0.14900
C3409       C  0.61756516  0.45121405  0.69640739     0.30300
C3410       C  0.63152848  0.43922976  0.70604034    -0.36000
C3411       C  0.65139378  0.44496137  0.70401552     0.16300
C3412       C  0.65718086  0.46126052  0.69313414     0.22100
C3413       C  0.64320706  0.47350245  0.68391676    -0.34200
C3414       C  0.62336707  0.46781863  0.68601247     0.16200
O3415       O  0.59833683  0.44787363  0.69511021    -0.26200
C3416       C  0.59177940  0.46261464  0.68380755     0.06000
C3417       C  0.60669694  0.47553061  0.67790149    -0.31100
O3418       O  0.67659112  0.46300536  0.69194462    -0.22900
C3419       C  0.68331651  0.44780502  0.70248900    -0.02900
C3420       C  0.66831694  0.43616178  0.71043974    -0.17300
H3421       H  0.62726991  0.42601704  0.71402732     0.20700
H3422       H  0.64753531  0.48620180  0.67516809     0.19100
H3423       H  0.60552937  0.48829165  0.66828557     0.19000
H3424       H  0.66973126  0.42266851  0.71895715     0.14900
C3425       C  0.42770506  0.48641898  0.60436653     0.30300
C3426       C  0.44820630  0.48882404  0.60294640    -0.36000
C3427       C  0.45928344  0.48227462  0.61917309     0.16300
C3428       C  0.45094373  0.47351213  0.63562899     0.22100
C3429       C  0.43027005  0.47132565  0.63717782    -0.34200
C3430       C  0.41906912  0.47831512  0.62102000     0.16200
O3431       O  0.41468365  0.49175336  0.59088831    -0.26200
C3432       C  0.39734794  0.48738606  0.59903064     0.06000
C3433       C  0.39909490  0.47907256  0.61784950    -0.31100
O3434       O  0.46439249  0.46831829  0.64894126    -0.22900
C3435       C  0.48143361  0.47418523  0.64090105    -0.02900
C3436       C  0.47904824  0.48299432  0.62246755    -0.17300
H3437       H  0.45505388  0.49554244  0.59011718     0.20700
H3438       H  0.42340287  0.46484312  0.65011356     0.19100
H3439       H  0.38739335  0.47419573  0.62762970     0.19000
H3440       H  0.49034256  0.48898379  0.61281852     0.14900
C3441       C  0.57844043  0.33032154  0.40684561     0.30300
C3442       C  0.58859441  0.32064573  0.39155117    -0.36000
C3443       C  0.58320252  0.32596093  0.37223751     0.16300
C3444       C  0.56893474  0.33998443  0.36813877     0.22100
C3445       C  0.55851303  0.34944182  0.38346841    -0.34200
C3446       C  0.56379811  0.34398541  0.40283300     0.16200
O3447       O  0.58190362  0.32840396  0.42597203    -0.26200
C3448       C  0.56915967  0.34083250  0.43436636     0.06000
C3449       C  0.55742621  0.35084148  0.42070653    -0.31100
O3450       O  0.56713561  0.34342121  0.34894817    -0.22900
C3451       C  0.58026718  0.33122643  0.34072451    -0.02900
C3452       C  0.59059180  0.31998213  0.35451210    -0.17300
H3453       H  0.60020919  0.31003088  0.39450332     0.20700
H3454       H  0.54738730  0.36057172  0.38052736     0.19100
H3455       H  0.54643254  0.36214870  0.42352619     0.19000
H3456       H  0.60233585  0.30941488  0.35186081     0.14900
C3457       C  0.49898185  0.25094257  0.50635276     0.30300
C3458       C  0.49815830  0.27153294  0.50892163    -0.36000
C3459       C  0.51617001  0.28166064  0.50740308     0.16300
C3460       C  0.53391476  0.27219259  0.50392312     0.22100
C3461       C  0.53476632  0.25149555  0.50149181    -0.34200
C3462       C  0.51663152  0.24135836  0.50268757     0.16200
O3463       O  0.48366111  0.23891893  0.50566157    -0.26200
C3464       C  0.49145702  0.22133668  0.50140404     0.06000
C3465       C  0.51196083  0.22191539  0.49941704    -0.31100
O3466       O  0.54872584  0.28479268  0.50177266    -0.22900
C3467       C  0.54027636  0.30252617  0.50375973    -0.02900
C3468       C  0.52006510  0.30143233  0.50733675    -0.17300
H3469       H  0.48429159  0.27922218  0.51112977     0.20700
H3470       H  0.54846562  0.24393802  0.49810069     0.19100
H3471       H  0.52183429  0.20996140  0.49537481     0.19000
H3472       H  0.50962717  0.31349348  0.50882452     0.14900
C3473       C  0.57310776  0.39593887  0.56829670     0.30300
C3474       C  0.57687945  0.41467606  0.57657378    -0.36000
C3475       C  0.56518437  0.42000383  0.59290563     0.16300
C3476       C  0.55107263  0.40753191  0.60077959     0.22100
C3477       C  0.54724815  0.38886026  0.59248243    -0.34200
C3478       C  0.55870643  0.38367545  0.57597485     0.16200
O3479       O  0.58056735  0.38905038  0.55161198    -0.26200
C3480       C  0.57091673  0.37213560  0.54857302     0.06000
C3481       C  0.55706277  0.36809413  0.56322822    -0.31100
O3482       O  0.54192686  0.41537778  0.61610788    -0.22900
C3483       C  0.55003603  0.43323813  0.61795476    -0.02900
C3484       C  0.56454155  0.43702855  0.60384874    -0.17300
H3485       H  0.58764360  0.42469595  0.57024350     0.20700
H3486       H  0.53571673  0.37930187  0.59814074     0.19100
H3487       H  0.54602854  0.35647978  0.56336209     0.19000
H3488       H  0.57360405  0.45014113  0.60225318     0.14900
C3489       C  0.70017234  0.65710973  0.43251721     0.30300
C3490       C  0.70647986  0.63772515  0.42839004    -0.36000
C3491       C  0.69618801  0.62253489  0.43807948     0.16300
C3492       C  0.68091328  0.62621431  0.45113221     0.22100
C3493       C  0.67448136  0.64558927  0.45512126    -0.34200
C3494       C  0.68463337  0.66076662  0.44525970     0.16200
O3495       O  0.70753637  0.67347300  0.42488362    -0.26200
C3496       C  0.69651014  0.68781493  0.43271372     0.06000
C3497       C  0.68196294  0.68079118  0.44547074    -0.31100
O3498       O  0.67336220  0.60982997  0.45852571    -0.22900
C3499       C  0.68378401  0.59544302  0.44996914    -0.02900
C3500       C  0.69815970  0.60244929  0.43702658    -0.17300
H3501       H  0.71845997  0.63469938  0.41819745     0.20700
H3502       H  0.66230879  0.64859858  0.46508838     0.19100
H3503       H  0.67100223  0.68919469  0.45359745     0.19000
H3504       H  0.70845376  0.59398772  0.42812203     0.14900
C3505       C  0.62071255  0.42337213  0.47168948     0.30300
C3506       C  0.63798411  0.43202508  0.46385692    -0.36000
C3507       C  0.63958662  0.45271741  0.46586313     0.16300
C3508       C  0.62531256  0.46389027  0.47528957     0.22100
C3509       C  0.60797666  0.45533970  0.48273466    -0.34200
C3510       C  0.60621686  0.43483395  0.48039283     0.16200
O3511       O  0.61623182  0.40431693  0.47190458    -0.26200
C3512       C  0.59849250  0.40373676  0.48050327     0.06000
C3513       C  0.59151437  0.42229076  0.48598039    -0.31100
O3514       O  0.62989077  0.48278243  0.47615714    -0.22900
C3515       C  0.64720195  0.48399554  0.46692207    -0.02900
C3516       C  0.65398074  0.46575730  0.46000223    -0.17300
H3517       H  0.64936694  0.42325209  0.45677952     0.20700
H3518       H  0.59664605  0.46409979  0.48991943     0.19100
H3519       H  0.57784811  0.42591173  0.49350659     0.19000
H3520       H  0.66753798  0.46257921  0.45209974     0.14900
C3521       C  0.36235497  0.57867458  0.33723698     0.30300
C3522       C  0.37568821  0.56656421  0.34752012    -0.36000
C3523       C  0.39573999  0.56936680  0.34302815     0.16300
C3524       C  0.40225509  0.58325960  0.32952396     0.22100
C3525       C  0.38892405  0.59506176  0.31896531    -0.34200
C3526       C  0.36890074  0.59213379  0.32331997     0.16200
O3527       O  0.34302712  0.57941757  0.33985797    -0.26200
C3528       C  0.33719311  0.59334532  0.32723482     0.06000
C3529       C  0.35263804  0.60167585  0.31652316    -0.31100
O3530       O  0.42168018  0.58453310  0.32883472    -0.22900
C3531       C  0.42767035  0.57109753  0.34187417    -0.02900
C3532       C  0.41220326  0.56109441  0.35103828    -0.17300
H3533       H  0.37082581  0.55609819  0.35862572     0.20700
H3534       H  0.39384145  0.60615322  0.30850863     0.19100
H3535       H  0.35202576  0.61360367  0.30584406     0.19000
H3536       H  0.41299794  0.55011646  0.36267915     0.14900
C3537       C  0.56807007  0.56023672  0.38859258     0.30300
C3538       C  0.58875450  0.55914469  0.38715033    -0.36000
C3539       C  0.59890685  0.55558671  0.40494836     0.16300
C3540       C  0.58940234  0.55365799  0.42295477     0.22100
C3541       C  0.56879825  0.55462525  0.42437948    -0.34200
C3542       C  0.55866974  0.55775460  0.40658942     0.16200
O3543       O  0.55547570  0.56272517  0.37381884    -0.26200
C3544       C  0.53790573  0.56148789  0.38258997     0.06000
C3545       C  0.53900736  0.55836683  0.40286759    -0.31100
O3546       O  0.60169409  0.55022044  0.43767751    -0.22900
C3547       C  0.61930094  0.54967660  0.42898546    -0.02900
C3548       C  0.61850842  0.55287124  0.40863723    -0.17300
H3549       H  0.59635845  0.56055530  0.37311684     0.20700
H3550       H  0.56116472  0.55265420  0.43833154     0.19100
H3551       H  0.52697164  0.55662760  0.41329911     0.19000
H3552       H  0.63060198  0.55307204  0.39813734     0.14900
C3553       C  0.43367940  0.71606299  0.65502679     0.30300
C3554       C  0.42866195  0.72001890  0.63526810    -0.36000
C3555       C  0.43992879  0.71022876  0.62085876     0.16300
C3556       C  0.45523773  0.69757004  0.62555721     0.22100
C3557       C  0.46025772  0.69360124  0.64536142    -0.34200
C3558       C  0.44880335  0.70321166  0.65980805     0.16200
O3559       O  0.42459346  0.72308427  0.67077850    -0.26200
C3560       C  0.43384719  0.71452254  0.68589759     0.06000
C3561       C  0.44905548  0.70195626  0.68000170    -0.31100
O3562       O  0.46325281  0.68939789  0.60971870    -0.22900
C3563       C  0.45288948  0.69686173  0.59470807    -0.02900
C3564       C  0.43818788  0.70992385  0.60076095    -0.17300
H3565       H  0.41651368  0.72970452  0.63141343     0.20700
H3566       H  0.47194059  0.68336372  0.64922465     0.19100
H3567       H  0.45867638  0.69306936  0.68920862     0.19000
H3568       H  0.42739839  0.71755185  0.59171962     0.14900
C3569       C  0.49676714  0.75514475  0.52048380     0.30300
C3570       C  0.49465661  0.77567461  0.51793072    -0.36000
C3571       C  0.51216161  0.78680949  0.51844336     0.16300
C3572       C  0.53052327  0.77828298  0.52100112     0.22100
C3573       C  0.53264270  0.75772958  0.52346886    -0.34200
C3574       C  0.51509825  0.74661804  0.52324129     0.16200
O3575       O  0.48225702  0.74217563  0.52180111    -0.26200
C3576       C  0.49134061  0.72508842  0.52552418     0.06000
C3577       C  0.51181325  0.72694908  0.52659323    -0.31100
O3578       O  0.54475715  0.79157273  0.52233206    -0.22900
C3579       C  0.53541044  0.80885465  0.52074307    -0.02900
C3580       C  0.51509483  0.80679893  0.51823657    -0.17300
H3581       H  0.48029235  0.78256087  0.51639393     0.20700
H3582       H  0.54690286  0.75097238  0.52612939     0.19100
H3583       H  0.52260144  0.71561868  0.52999638     0.19000
H3584       H  0.50403528  0.81834724  0.51735905     0.14900
C3585       C  0.46846496  0.62537328  0.46771346     0.30300
C3586       C  0.47351837  0.60671273  0.46007803    -0.36000
C3587       C  0.47071477  0.60409262  0.43967801     0.16300
C3588       C  0.46375058  0.61895169  0.42752769     0.22100
C3589       C  0.45813128  0.63748168  0.43528596    -0.34200
C3590       C  0.46065963  0.64001171  0.45580983     0.16200
O3591       O  0.47059303  0.63113640  0.48622845    -0.26200
C3592       C  0.46379877  0.64962198  0.48638840     0.06000
C3593       C  0.45719692  0.65593427  0.46790595    -0.31100
O3594       O  0.46397014  0.61379775  0.40864499    -0.22900
C3595       C  0.47074974  0.59526715  0.40879968    -0.02900
C3596       C  0.47501275  0.58839659  0.42771462    -0.17300
H3597       H  0.47959910  0.59516146  0.46935324     0.20700
H3598       H  0.45260256  0.64923223  0.42591878     0.19100
H3599       H  0.45112077  0.67021179  0.46393669     0.19000
H3600       H  0.48143813  0.57432597  0.43188205     0.14900
C3601       C  0.39647485  0.57158591  0.56297584     0.30300
C3602       C  0.41566565  0.57841920  0.55930433    -0.36000
C3603       C  0.41793665  0.59896335  0.55837982     0.16300
C3604       C  0.40232223  0.61193717  0.56057634     0.22100
C3605       C  0.38310469  0.60507344  0.56468743    -0.34200
C3606       C  0.38086542  0.58442160  0.56594577     0.16200
O3607       O  0.39102231  0.55294741  0.56338877    -0.26200
C3608       C  0.37174282  0.55366280  0.56704377     0.06000
C3609       C  0.36449409  0.57285433  0.56896887    -0.31100
O3610       O  0.40768741  0.63051666  0.55781188    -0.22900
C3611       C  0.42700910  0.62934953  0.55415717    -0.02900
C3612       C  0.43420925  0.61010226  0.55444149    -0.17300
H3613       H  0.42791071  0.56837175  0.55693491     0.20700
H3614       H  0.37073710  0.61509526  0.56639982     0.19100
H3615       H  0.34937607  0.57754466  0.57131742     0.19000
H3616       H  0.44908301  0.60503130  0.55137947     0.14900
C3617       C  0.67972870  0.41524428  0.06688671     0.30300
C3618       C  0.67576284  0.39540646  0.06198408    -0.36000
C3619       C  0.68594027  0.38111179  0.07305420     0.16300
C3620       C  0.69934741  0.38609889  0.08764917     0.22100
C3621       C  0.70334632  0.40590897  0.09249665    -0.34200
C3622       C  0.69292024  0.42017400  0.08169292     0.16200
O3623       O  0.67114174  0.43091695  0.05915276    -0.26200
C3624       C  0.67879254  0.44606159  0.06922489     0.06000
C3625       C  0.69245820  0.44029481  0.08345555    -0.31100
O3626       O  0.70670137  0.37048001  0.09661464    -0.22900
C3627       C  0.69780373  0.35523865  0.08784591    -0.02900
C3628       C  0.68470289  0.36091304  0.07301186    -0.17300
H3629       H  0.66508324  0.39141327  0.05072403     0.20700
H3630       H  0.71347163  0.40989287  0.10426267     0.19100
H3631       H  0.70053236  0.44951694  0.09379555     0.19000
H3632       H  0.67540514  0.35158582  0.06386945     0.14900
C3633       C  0.55930133  0.69477950  0.11603164     0.30300
C3634       C  0.55546011  0.68839333  0.13542576    -0.36000
C3635       C  0.56640198  0.69772398  0.15038311     0.16300
C3636       C  0.57995543  0.71249053  0.14645255     0.22100
C3637       C  0.58384540  0.71881423  0.12707063    -0.34200
C3638       C  0.57310834  0.70930831  0.11210704     0.16200
O3639       O  0.55130517  0.68757701  0.09979884    -0.26200
C3640       C  0.56018225  0.69749664  0.08529603     0.06000
C3641       C  0.57394876  0.71121266  0.09202758    -0.31100
O3642       O  0.58880525  0.71893373  0.16254007    -0.22900
C3643       C  0.58099256  0.70808340  0.17697341    -0.02900
C3644       C  0.56694311  0.69458315  0.17034001    -0.17300
H3645       H  0.54496811  0.67671112  0.13857302     0.20700
H3646       H  0.59476009  0.73008685  0.12387187     0.19100
H3647       H  0.58340763  0.72083785  0.08340665     0.19000
H3648       H  0.55860148  0.68392016  0.17889422     0.14900
C3649       C  0.49477795  0.75071795  0.02151219     0.30300
C3650       C  0.47651405  0.75991677  0.02505812    -0.36000
C3651       C  0.47621036  0.78060286  0.02315548     0.16300
C3652       C  0.49277538  0.79152310  0.01830336     0.22100
C3653       C  0.51091527  0.78229553  0.01433453    -0.34200
C3654       C  0.51118372  0.76161453  0.01611065     0.16200
O3655       O  0.49882021  0.73174796  0.02391187    -0.26200
C3656       C  0.51802976  0.73048737  0.01984654     0.06000
C3657       C  0.52643627  0.74858490  0.01475124    -0.31100
O3658       O  0.48953314  0.81077418  0.01890295    -0.22900
C3659       C  0.47055949  0.81217808  0.02386564    -0.02900
C3660       C  0.46148428  0.79390005  0.02658661    -0.17300
H3661       H  0.46361331  0.75160469  0.02961164     0.20700
H3662       H  0.52406409  0.79070323  0.01077119     0.19100
H3663       H  0.54178106  0.75182073  0.01154432     0.19000
H3664       H  0.44649511  0.79091966  0.03134788     0.14900
C3665       C  0.59137525  0.60365426  0.04116245     0.30300
C3666       C  0.59145039  0.58298086  0.04000782    -0.36000
C3667       C  0.60943034  0.57373596  0.04435888     0.16300
C3668       C  0.62620032  0.58395743  0.04999165     0.22100
C3669       C  0.62621443  0.60477978  0.05085648    -0.34200
C3670       C  0.60824624  0.61411330  0.04603322     0.16200
O3671       O  0.57614760  0.61520620  0.03743242    -0.26200
C3672       C  0.58336206  0.63336640  0.03959696     0.06000
C3673       C  0.60327836  0.63365626  0.04484964    -0.31100
O3674       O  0.64120259  0.57199766  0.05397049    -0.22900
C3675       C  0.63388156  0.55402166  0.05037032    -0.02900
C3676       C  0.61428045  0.55428855  0.04428985    -0.17300
H3677       H  0.57840770  0.57466650  0.03584691     0.20700
H3678       H  0.63929280  0.61310316  0.05487271     0.19100
H3679       H  0.61264853  0.64639599  0.04744363     0.19000
H3680       H  0.60483452  0.54182433  0.04076167     0.14900
C3681       C  0.36351722  0.45206284  0.20813876     0.30300
C3682       C  0.38273299  0.44592906  0.21310706    -0.36000
C3683       C  0.39820764  0.45515557  0.20279776     0.16300
C3684       C  0.39501136  0.46976099  0.18888792     0.22100
C3685       C  0.37579082  0.47603921  0.18406599    -0.34200
C3686       C  0.36028099  0.46648803  0.19405191     0.16200
O3687       O  0.34692483  0.44426230  0.21477669    -0.26200
C3688       C  0.33282310  0.45364840  0.20471918     0.06000
C3689       C  0.34025952  0.46771778  0.19164116    -0.31100
O3690       O  0.41153030  0.47565039  0.18032061    -0.22900
C3691       C  0.42548845  0.46454362  0.18868431    -0.02900
C3692       C  0.41806038  0.45154511  0.20282581    -0.17300
H3693       H  0.38538470  0.43419089  0.22367544     0.20700
H3694       H  0.37309302  0.48702687  0.17273151     0.19100
H3695       H  0.33214889  0.47695851  0.18138448     0.19000
H3696       H  0.42605590  0.44068963  0.21146518     0.14900
C3697       C  0.49640135  0.51460717  0.28616713     0.30300
C3698       C  0.49579296  0.49648259  0.27590421    -0.36000
C3699       C  0.49627059  0.49765821  0.25511258     0.16300
C3700       C  0.49707061  0.51543480  0.24507741     0.22100
C3701       C  0.49804231  0.53350664  0.25532679    -0.34200
C3702       C  0.49775629  0.53231950  0.27608471     0.16200
O3703       O  0.49482567  0.51712182  0.30555345    -0.26200
C3704       C  0.49543204  0.53671196  0.30789635     0.06000
C3705       C  0.49735817  0.54684987  0.29005540    -0.31100
O3706       O  0.49585164  0.51317828  0.22567001    -0.22900
C3707       C  0.49453955  0.49366311  0.22318892    -0.02900
C3708       C  0.49484024  0.48327020  0.24099740    -0.17300
H3709       H  0.49447873  0.48247826  0.28356507     0.20700
H3710       H  0.49842580  0.54755920  0.24764921     0.19100
H3711       H  0.49744911  0.56269861  0.28766629     0.19000
H3712       H  0.49322577  0.46748211  0.24323346     0.14900
C3713       C  0.58879313  0.47450179  0.10770739     0.30300
C3714       C  0.57447288  0.46053819  0.11351272    -0.36000
C3715       C  0.56175355  0.46632481  0.12898093     0.16300
C3716       C  0.56281770  0.48475119  0.13779904     0.22100
C3717       C  0.57744078  0.49846710  0.13238621    -0.34200
C3718       C  0.59032440  0.49255542  0.11720157     0.16200
O3719       O  0.60185126  0.47249957  0.09323312    -0.26200
C3720       C  0.61202763  0.48939303  0.09372699     0.06000
C3721       C  0.60558717  0.50232445  0.10842701    -0.31100
O3722       O  0.54811645  0.48799825  0.15023671    -0.22900
C3723       C  0.53774460  0.47124382  0.14988729    -0.02900
C3724       C  0.54562357  0.45714974  0.13702818    -0.17300
H3725       H  0.57305286  0.44634089  0.10618558     0.20700
H3726       H  0.57836228  0.51297595  0.13916609     0.19100
H3727       H  0.61123974  0.51690979  0.11195961     0.19000
H3728       H  0.53935176  0.44298759  0.13288376     0.14900
C3729       C  0.42545678  0.32515607  0.87050759     0.30300
C3730       C  0.41935408  0.32090348  0.88992622    -0.36000
C3731       C  0.42855006  0.33192241  0.90495377     0.16300
C3732       C  0.44291098  0.34591766  0.90105282     0.22100
C3733       C  0.44895522  0.35018708  0.88169936    -0.34200
C3734       C  0.43961992  0.33937731  0.86671327     0.16200
O3735       O  0.41819075  0.31738806  0.85414810    -0.26200
C3736       C  0.42775536  0.32686532  0.83977454     0.06000
C3737       C  0.44126620  0.34071266  0.84669922    -0.31100
O3738       O  0.44932223  0.35474552  0.91715910    -0.22900
C3739       C  0.43888413  0.34646872  0.93161361    -0.02900
C3740       C  0.42565555  0.33215108  0.92496393    -0.17300
H3741       H  0.40795315  0.31010185  0.89304650     0.20700
H3742       H  0.45988361  0.36145751  0.87853430     0.19100
H3743       H  0.45047959  0.35069802  0.83821966     0.19000
H3744       H  0.41536366  0.32339644  0.93355529     0.14900
C3745       C  0.48450239  0.28706288  0.00000172     0.30300
C3746       C  0.48292308  0.26636189  0.00066297    -0.36000
C3747       C  0.50078940  0.25586049  0.00061007     0.16300
C3748       C  0.51899913  0.26507533  0.00014315     0.22100
C3749       C  0.52058250  0.28580808  0.99933574    -0.34200
C3750       C  0.50267766  0.29632578  0.99919671     0.16200
O3751       O  0.46966547  0.29967940  0.99926116    -0.26200
C3752       C  0.47838795  0.31728444  0.99784695     0.06000
C3753       C  0.49893540  0.31612286  0.99768140    -0.31100
O3754       O  0.53376474  0.25230981  0.99979716    -0.22900
C3755       C  0.52486740  0.23471382  0.99991304    -0.02900
C3756       C  0.50436179  0.23602311  0.00036435    -0.17300
H3757       H  0.46873553  0.25894996  0.00085677     0.20700
H3758       H  0.53476004  0.29319552  0.99853075     0.19100
H3759       H  0.50951102  0.32806266  0.99621941     0.19000
H3760       H  0.49367073  0.22409363  0.00017630     0.14900
C3761       C  0.45784982  0.41839772  0.10069025     0.30300
C3762       C  0.44948523  0.40122787  0.09230617    -0.36000
C3763       C  0.45155563  0.39915171  0.07168980     0.16300
C3764       C  0.46147486  0.41291119  0.06031808     0.22100
C3765       C  0.46943644  0.43019969  0.06860131    -0.34200
C3766       C  0.46706468  0.43243468  0.08906832     0.16200
O3767       O  0.45844125  0.42299678  0.11969177    -0.26200
C3768       C  0.46775484  0.44038489  0.12011532     0.06000
C3769       C  0.47335709  0.44703754  0.10149346    -0.31100
O3770       O  0.46247995  0.40777857  0.04156772    -0.22900
C3771       C  0.45287202  0.39062746  0.04069640    -0.02900
C3772       C  0.44555178  0.38451514  0.05897403    -0.17300
H3773       H  0.44211545  0.39017729  0.10124941     0.20700
H3774       H  0.47713788  0.44106417  0.05970573     0.19100
H3775       H  0.48161821  0.46025370  0.09778741     0.19000
H3776       H  0.43738967  0.37116774  0.06240548     0.14900
C3777       C  0.32839813  0.63544346  0.95368214     0.30300
C3778       C  0.33275131  0.65422835  0.96139357    -0.36000
C3779       C  0.32397770  0.67027800  0.95168018     0.16300
C3780       C  0.31153940  0.66800876  0.93562390     0.22100
C3781       C  0.30720244  0.64917591  0.92786396    -0.34200
C3782       C  0.31619298  0.63309819  0.93745579     0.16200
O3783       O  0.33555408  0.61852503  0.96013233    -0.26200
C3784       C  0.32795177  0.60510781  0.94786572     0.06000
C3785       C  0.31579134  0.61328952  0.93339818    -0.31100
O3786       O  0.30559578  0.68513326  0.92839676    -0.22900
C3787       C  0.31448442  0.69849432  0.93987955    -0.02900
C3788       C  0.32610534  0.69010830  0.95461317    -0.17300
H3789       H  0.34265134  0.65621123  0.97383714     0.20700
H3790       H  0.29784743  0.64723787  0.91499769     0.19100
H3791       H  0.30801970  0.60578035  0.92154962     0.19000
H3792       H  0.33525118  0.69755125  0.96547811     0.14900
C3793       C  0.37068556  0.46334013  0.96309236     0.30300
C3794       C  0.36978158  0.44338444  0.96895893    -0.36000
C3795       C  0.38793348  0.43325290  0.96974699     0.16300
C3796       C  0.40570245  0.44212200  0.96499590     0.22100
C3797       C  0.40661070  0.46197887  0.95913205    -0.34200
C3798       C  0.38854936  0.47208766  0.95844334     0.16200
O3799       O  0.35575331  0.47599122  0.96227302    -0.26200
C3800       C  0.36430285  0.49292533  0.95693565     0.06000
C3801       C  0.38461617  0.49137545  0.95448518    -0.31100
O3802       O  0.42092223  0.43015950  0.96725150    -0.22900
C3803       C  0.41288004  0.41336218  0.97358756    -0.02900
C3804       C  0.39238629  0.41438759  0.97540640    -0.17300
H3805       H  0.35597913  0.43637439  0.97302104     0.20700
H3806       H  0.42050037  0.46917339  0.95572908     0.19100
H3807       H  0.39504412  0.50302661  0.95098298     0.19000
H3808       H  0.38231437  0.40299537  0.98042933     0.14900
C3809       C  0.64905558  0.58829503  0.82983073     0.30300
C3810       C  0.63569193  0.57679026  0.84083086    -0.36000
C3811       C  0.61554901  0.57982240  0.83674635     0.16300
C3812       C  0.60895937  0.59336654  0.82294639     0.22100
C3813       C  0.62231557  0.60466690  0.81178520    -0.34200
C3814       C  0.64243839  0.60151060  0.81573368     0.16200
O3815       O  0.66852984  0.58831574  0.83155869    -0.26200
C3816       C  0.67443469  0.60158574  0.81823128     0.06000
C3817       C  0.65882406  0.61017772  0.80792736    -0.31100
O3818       O  0.58947475  0.59432787  0.82205096    -0.22900
C3819       C  0.58348978  0.58106544  0.83531129    -0.02900
C3820       C  0.59907683  0.57154337  0.84484177    -0.17300
H3821       H  0.64063243  0.56636487  0.85193792     0.20700
H3822       H  0.61736206  0.61533895  0.80092176     0.19100
H3823       H  0.65946090  0.62152044  0.79663288     0.19000
H3824       H  0.59834167  0.56046330  0.85638937     0.14900
C3825       C  0.52199657  0.50425179  0.74350370     0.30300
C3826       C  0.52046247  0.50141651  0.76403355    -0.36000
C3827       C  0.52077028  0.51860509  0.77566433     0.16300
C3828       C  0.52222301  0.53730308  0.76757599     0.22100
C3829       C  0.52395467  0.54013164  0.74702553    -0.34200
C3830       C  0.52386105  0.52290130  0.73538837     0.16200
O3831       O  0.52260578  0.49017838  0.73004254    -0.26200
C3832       C  0.52499584  0.49982119  0.71303793     0.06000
C3833       C  0.52593925  0.52027593  0.71540581    -0.31100
O3834       O  0.52235821  0.55128552  0.78119218    -0.22900
C3835       C  0.52116642  0.54143908  0.79822374    -0.02900
C3836       C  0.52023225  0.52102285  0.79573172    -0.17300
H3837       H  0.51939378  0.48679529  0.77048990     0.20700
H3838       H  0.52552183  0.55472224  0.74060376     0.19100
H3839       H  0.52824103  0.53145816  0.70417219     0.19000
H3840       H  0.51944301  0.50968424  0.80701799     0.14900
C3841       C  0.41226350  0.56410307  0.89962018     0.30300
C3842       C  0.42075533  0.57112251  0.88191270    -0.36000
C3843       C  0.44092992  0.56687982  0.87912088     0.16300
C3844       C  0.45173135  0.55608233  0.89266496     0.22100
C3845       C  0.44336145  0.54936860  0.91043206    -0.34200
C3846       C  0.42341838  0.55402092  0.91342873     0.16200
O3847       O  0.39360948  0.56593897  0.90513042    -0.26200
C3848       C  0.39301481  0.55736181  0.92289095     0.06000
C3849       C  0.41114648  0.54978387  0.92884843    -0.31100
O3850       O  0.47026537  0.55376969  0.88727443    -0.22900
C3851       C  0.47163561  0.56341451  0.87016263    -0.02900
C3852       C  0.45383423  0.57200640  0.86432439    -0.17300
H3853       H  0.41226092  0.57937506  0.87113968     0.20700
H3854       H  0.45188752  0.54121614  0.92126115     0.19100
H3855       H  0.41454450  0.54160265  0.94219944     0.19000
H3856       H  0.45093756  0.58092948  0.85134384     0.14900
C3857       C  0.53616778  0.63401191  0.95692053     0.30300
C3858       C  0.53150718  0.61522388  0.94950449    -0.36000
C3859       C  0.53341491  0.61284202  0.92904437     0.16300
C3860       C  0.53898625  0.62807569  0.91662722     0.22100
C3861       C  0.54392326  0.64688712  0.92410898    -0.34200
C3862       C  0.54252681  0.64913283  0.94474039     0.16200
O3863       O  0.53569865  0.63920626  0.97563550    -0.26200
C3864       C  0.54216665  0.65777026  0.97564973     0.06000
C3865       C  0.54679364  0.66482724  0.95686078    -0.31100
O3866       O  0.53914777  0.62261400  0.89787931    -0.22900
C3867       C  0.53403514  0.60358124  0.89845706    -0.02900
C3868       C  0.53037652  0.59665994  0.91743690    -0.17300
H3869       H  0.52690426  0.60323573  0.95907838     0.20700
H3870       H  0.54866965  0.65883017  0.91455390     0.19100
H3871       H  0.55238672  0.67927474  0.95278842     0.19000
H3872       H  0.52564773  0.58202191  0.92192260     0.14900
C3873       C  0.08106870  0.72448618  0.37636056     0.30300
C3874       C  0.08559336  0.73065818  0.39570784    -0.36000
C3875       C  0.07605821  0.72034111  0.41096880     0.16300
C3876       C  0.06266472  0.70533395  0.40733721     0.22100
C3877       C  0.05806546  0.69925583  0.38802930    -0.34200
C3878       C  0.06790639  0.70925612  0.37281951     0.16200
O3879       O  0.08948425  0.73090737  0.36000704    -0.26200
C3880       C  0.08174536  0.71952928  0.34588223     0.06000
C3881       C  0.06817988  0.70581839  0.35295259    -0.31100
O3882       O  0.05622447  0.69701202  0.42368562    -0.22900
C3883       C  0.06572313  0.70661406  0.43801115    -0.02900
C3884       C  0.07829200  0.72133761  0.43103786    -0.17300
H3885       H  0.09640044  0.74211234  0.39865736     0.20700
H3886       H  0.04812520  0.68702886  0.38511775     0.19100
H3887       H  0.06031711  0.69448789  0.34476796     0.19000
H3888       H  0.08800437  0.73091804  0.43945674     0.14900
C3889       C  0.02350804  0.76783339  0.50570671     0.30300
C3890       C  0.02534023  0.78840680  0.50341994    -0.36000
C3891       C  0.00763638  0.79920334  0.50333050     0.16300
C3892       C  0.98937168  0.79040657  0.50568521     0.22100
C3893       C  0.98754136  0.76980720  0.50808802    -0.34200
C3894       C  0.00524859  0.75894778  0.50778707     0.16200
O3895       O  0.03801330  0.75486209  0.50454974    -0.26200
C3896       C  0.02899115  0.73739021  0.50569764     0.06000
C3897       C  0.00857136  0.73899255  0.50775090    -0.31100
O3898       O  0.97470819  0.80317900  0.50392681    -0.22900
C3899       C  0.98368337  0.82035872  0.50028859    -0.02900
C3900       C  0.00418379  0.81876791  0.49978185    -0.17300
H3901       H  0.03953469  0.79540848  0.50103185     0.20700
H3902       H  0.97326141  0.76267104  0.50925411     0.19100
H3903       H  0.99773974  0.72720380  0.50827012     0.19000
H3904       H  0.01491182  0.83020156  0.49651456     0.14900
C3905       C  0.11398220  0.59401162  0.70293643     0.30300
C3906       C  0.12804053  0.60454642  0.71402398    -0.36000
C3907       C  0.14790809  0.60022901  0.70986448     0.16300
C3908       C  0.15357901  0.58670180  0.69558778     0.22100
C3909       C  0.13954721  0.57600899  0.68467974    -0.34200
C3910       C  0.11971590  0.58012797  0.68903357     0.16200
O3911       O  0.09458836  0.59611865  0.70386237    -0.26200
C3912       C  0.08789216  0.58320142  0.69055639     0.06000
C3913       C  0.10285940  0.57281678  0.68096334    -0.31100
O3914       O  0.17293286  0.58564164  0.69352918    -0.22900
C3915       C  0.17975288  0.59846176  0.70685356    -0.02900
C3916       C  0.16487218  0.60791848  0.71749378    -0.17300
H3917       H  0.12380168  0.61549911  0.72495053     0.20700
H3918       H  0.14378716  0.56539065  0.67342458     0.19100
H3919       H  0.10150332  0.56193354  0.66924282     0.19000
H3920       H  0.16635672  0.61924343  0.72876643     0.14900
C3921       C  0.04841440  0.63943370  0.56626960     0.30300
C3922       C  0.04277357  0.62101302  0.57386881    -0.36000
C3923       C  0.04485014  0.61865053  0.59432076     0.16300
C3924       C  0.05153156  0.63356384  0.60662353     0.22100
C3925       C  0.05756716  0.65197894  0.59892551    -0.34200
C3926       C  0.05592559  0.65420179  0.57827005     0.16200
O3927       O  0.04742714  0.64469978  0.54758793    -0.26200
C3928       C  0.05471984  0.66296427  0.54735607     0.06000
C3929       C  0.06042892  0.66971765  0.56600837    -0.31100
O3930       O  0.05111619  0.62834968  0.62547784    -0.22900
C3931       C  0.04451565  0.60974755  0.62504593    -0.02900
C3932       C  0.04051167  0.60292588  0.60606783    -0.17300
H3933       H  0.03706886  0.60933939  0.56445975     0.20700
H3934       H  0.06303146  0.66374080  0.60836139     0.19100
H3935       H  0.06660174  0.68397691  0.56995002     0.19000
H3936       H  0.03447539  0.58872961  0.60168216     0.14900
C3937       C  0.17368707  0.41662740  0.45840644     0.30300
C3938       C  0.16677381  0.39724834  0.46149406    -0.36000
C3939       C  0.17775748  0.38211469  0.45242815     0.16300
C3940       C  0.19445284  0.38589311  0.44129454     0.22100
C3941       C  0.20129855  0.40520723  0.43816091    -0.34200
C3942       C  0.19021770  0.42029968  0.44699706     0.16200
O3943       O  0.16544488  0.43304618  0.46498959    -0.26200
C3944       C  0.17674063  0.44735127  0.45751057     0.06000
C3945       C  0.19234572  0.44031359  0.44615191    -0.31100
O3946       O  0.20217552  0.36973842  0.43369824    -0.22900
C3947       C  0.19031018  0.35534877  0.43992788    -0.02900
C3948       C  0.17480117  0.36211289  0.45167013    -0.17300
H3949       H  0.15358723  0.39422775  0.47005322     0.20700
H3950       H  0.21415538  0.40826523  0.42912240     0.19100
H3951       H  0.20348391  0.44872366  0.43830306     0.19000
H3952       H  0.16290340  0.35363860  0.45822217     0.14900
C3953       C  0.24247625  0.51317973  0.50238265     0.30300
C3954       C  0.26311312  0.51309849  0.50027022    -0.36000
C3955       C  0.27409587  0.51271161  0.51788054     0.16300
C3956       C  0.26540843  0.51259102  0.53637209     0.22100
C3957       C  0.24469297  0.51255607  0.53849322    -0.34200
C3958       C  0.23366888  0.51276044  0.52081779     0.16200
O3959       O  0.22950343  0.51287390  0.48782059    -0.26200
C3960       C  0.21207400  0.51211585  0.49693044     0.06000
C3961       C  0.21372636  0.51197092  0.51751201    -0.31100
O3962       O  0.27859217  0.51169641  0.55081053    -0.22900
C3963       C  0.29593504  0.51115944  0.54141442    -0.02900
C3964       C  0.29398800  0.51169818  0.52090367    -0.17300
H3965       H  0.27012451  0.51298426  0.48585757     0.20700
H3966       H  0.23767482  0.51203791  0.55289121     0.19100
H3967       H  0.20200122  0.51104165  0.52838206     0.19000
H3968       H  0.30554069  0.51095195  0.50983106     0.14900
C3969       C  0.11437113  0.61999487  0.47342785     0.30300
C3970       C  0.13236527  0.61148604  0.46712230    -0.36000
C3971       C  0.13375842  0.59072230  0.46876093     0.16300
C3972       C  0.11859242  0.57941809  0.47645332     0.22100
C3973       C  0.10061760  0.58779692  0.48226098    -0.34200
C3974       C  0.09910111  0.60829848  0.48025865     0.16200
O3975       O  0.10985251  0.63906402  0.47397372    -0.26200
C3976       C  0.09133912  0.63929722  0.48081868     0.06000
C3977       C  0.08392908  0.62059639  0.48483271    -0.31100
O3978       O  0.12305059  0.56055619  0.47758231    -0.22900
C3979       C  0.14121809  0.55942279  0.47024960    -0.02900
C3980       C  0.14870027  0.57771104  0.46426556    -0.17300
H3981       H  0.14443066  0.62039807  0.46153419     0.20700
H3982       H  0.08865468  0.57891008  0.48811587     0.19100
H3983       H  0.06965450  0.61671607  0.49095864     0.19000
H3984       H  0.16305012  0.58094621  0.45796282     0.14900
C3985       C  0.89903998  0.45740500  0.32936850     0.30300
C3986       C  0.88619050  0.44578883  0.31798694    -0.36000
C3987       C  0.86598134  0.44915404  0.32099692     0.16300
C3988       C  0.85877649  0.46276848  0.33447428     0.22100
C3989       C  0.87165398  0.47450286  0.34578033    -0.34200
C3990       C  0.89190443  0.47133428  0.34256260     0.16200
O3991       O  0.91851171  0.45649336  0.32919371    -0.26200
C3992       C  0.92390092  0.47019331  0.34227773     0.06000
C3993       C  0.90799024  0.47991048  0.35102450    -0.31100
O3994       O  0.83925798  0.46290652  0.33527781    -0.22900
C3995       C  0.83400433  0.44936732  0.32193806    -0.02900
C3996       C  0.85001326  0.44040755  0.31261127    -0.17300
H3997       H  0.89156250  0.43482325  0.30758420     0.20700
H3998       H  0.86628430  0.48525800  0.35639962     0.19100
H3999       H  0.90826512  0.49129592  0.36233319     0.19000
H4000       H  0.84987918  0.42873438  0.30159458     0.14900
C4001       C  0.06335310  0.48652844  0.39029170     0.30300
C4002       C  0.08412578  0.48609978  0.38950563    -0.36000
C4003       C  0.09398021  0.48996705  0.40745572     0.16300
C4004       C  0.08404606  0.49359654  0.42496779     0.22100
C4005       C  0.06340981  0.49431115  0.42568477    -0.34200
C4006       C  0.05363858  0.49086881  0.40776382     0.16200
O4007       O  0.05098610  0.48333547  0.37542866    -0.26200
C4008       C  0.03327965  0.48610923  0.38359616     0.06000
C4009       C  0.03407787  0.49088771  0.40357276    -0.31100
O4010       O  0.09602583  0.49659787  0.44003140    -0.22900
C4011       C  0.11393380  0.49517265  0.43211005    -0.02900
C4012       C  0.11363352  0.49115029  0.41185949    -0.17300
H4013       H  0.09202831  0.48309177  0.37588870     0.20700
H4014       H  0.05550868  0.49748555  0.43926916     0.19100
H4015       H  0.02189730  0.49364583  0.41361572     0.19000
H4016       H  0.12605742  0.48932995  0.40191598     0.14900
C4017       C  0.95306749  0.35215931  0.62421261     0.30300
C4018       C  0.95713055  0.35787601  0.64381007    -0.36000
C4019       C  0.94786319  0.34666227  0.65860892     0.16300
C4020       C  0.93561177  0.33087177  0.65431093     0.22100
C4021       C  0.93141889  0.32529835  0.63477452    -0.34200
C4022       C  0.94050659  0.33658755  0.62002763     0.16200
O4023       O  0.95995535  0.36060844  0.60806117    -0.26200
C4024       C  0.95153722  0.35040521  0.59343024     0.06000
C4025       C  0.93920889  0.33534880  0.59996582    -0.31100
O4026       O  0.92828945  0.32257836  0.67028308    -0.22900
C4027       C  0.93580833  0.33318824  0.68506787    -0.02900
C4028       C  0.94810615  0.34844117  0.67875461    -0.17300
H4029       H  0.96668670  0.37027092  0.64725281     0.20700
H4030       H  0.92158302  0.31312578  0.63132553     0.19100
H4031       H  0.93057556  0.32505283  0.59121368     0.19000
H4032       H  0.95577138  0.35936499  0.68764732     0.14900
C4033       C  0.00989628  0.25327720  0.52073110     0.30300
C4034       C  0.99193892  0.26360922  0.51983117    -0.36000
C4035       C  0.99313688  0.28426220  0.52185584     0.16300
C4036       C  0.01073507  0.29419789  0.52477166     0.22100
C4037       C  0.02877865  0.28388083  0.52532849    -0.34200
C4038       C  0.02759638  0.26319460  0.52308458     0.16200
O4039       O  0.01208666  0.23382873  0.52026239    -0.26200
C4040       C  0.03150464  0.23123889  0.52200272     0.06000
C4041       C  0.04187875  0.24899775  0.52370296    -0.31100
O4042       O  0.00815775  0.31345507  0.52749716    -0.22900
C4043       C  0.98864489  0.31583321  0.52608710    -0.02900
C4044       C  0.97864775  0.29817136  0.52249271    -0.17300
H4045       H  0.97793884  0.25603521  0.51811579     0.20700
H4046       H  0.04271134  0.29138717  0.52775348     0.19100
H4047       H  0.05758815  0.25106777  0.52597020     0.19000
H4048       H  0.96286243  0.29582757  0.52126062     0.14900
C4049       C  0.96368234  0.42197868  0.42545498     0.30300
C4050       C  0.95969826  0.40282901  0.43257875    -0.36000
C4051       C  0.96177771  0.40021012  0.45310391     0.16300
C4052       C  0.96778317  0.41534767  0.46550034     0.22100
C4053       C  0.97127388  0.43449774  0.45848234    -0.34200
C4054       C  0.96879166  0.43719809  0.43814432     0.16200
O4055       O  0.96372443  0.42761434  0.40677200    -0.26200
C4056       C  0.96848099  0.44673158  0.40769583     0.06000
C4057       C  0.97163355  0.45354615  0.42681897    -0.31100
O4058       O  0.96951222  0.40966897  0.48397465    -0.22900
C4059       C  0.96423073  0.39074415  0.48363333    -0.02900
C4060       C  0.95905239  0.38395587  0.46486432    -0.17300
H4061       H  0.95551757  0.39081492  0.42280592     0.20700
H4062       H  0.97580128  0.44642668  0.46820926     0.19100
H4063       H  0.97640623  0.46811434  0.43153782     0.19000
H4064       H  0.95421045  0.36929032  0.46055861     0.14900
C4065       C  0.82178677  0.63035253  0.58166728     0.30300
C4066       C  0.81179807  0.64407347  0.59365254    -0.36000
C4067       C  0.81467447  0.66409229  0.58893301     0.16300
C4068       C  0.82669770  0.67026996  0.57361003     0.22100
C4069       C  0.83641034  0.65653207  0.56140141    -0.34200
C4070       C  0.83340729  0.63649727  0.56602367     0.16200
O4071       O  0.82207538  0.61095318  0.58406637    -0.26200
C4072       C  0.83388762  0.60458364  0.56964101     0.06000
C4073       C  0.84125138  0.61981817  0.55789254    -0.31100
O4074       O  0.82803999  0.68975626  0.57251852    -0.22900
C4075       C  0.81650793  0.69609537  0.58718576    -0.02900
C4076       C  0.80775804  0.68078672  0.59781233    -0.17300
H4077       H  0.80274632  0.63948521  0.60604503     0.20700
H4078       H  0.84596088  0.66113909  0.54939826     0.19100
H4079       H  0.85155235  0.61879358  0.54565951     0.19000
H4080       H  0.79813322  0.68184253  0.61058478     0.14900
C4081       C  0.78157029  0.53125501  0.51232302     0.30300
C4082       C  0.77224344  0.53000011  0.49378933    -0.36000
C4083       C  0.75151095  0.52908499  0.49409275     0.16300
C4084       C  0.74065904  0.52954929  0.51141236     0.22100
C4085       C  0.74999739  0.53037379  0.52994814    -0.34200
C4086       C  0.77072179  0.53113914  0.52964820     0.16200
O4087       O  0.80069882  0.53361190  0.51549991    -0.26200
C4088       C  0.80211090  0.53476983  0.53513425     0.06000
C4089       C  0.78394318  0.53319429  0.54468082    -0.31100
O4090       O  0.72142166  0.53020417  0.50817715    -0.22900
C4091       C  0.71992714  0.52988875  0.48852655    -0.02900
C4092       C  0.73816737  0.52905368  0.47900902    -0.17300
H4093       H  0.78052840  0.53034218  0.48007679     0.20700
H4094       H  0.74167264  0.53101385  0.54362786     0.19100
H4095       H  0.78085569  0.53434718  0.56037741     0.19000
H4096       H  0.74115754  0.52943997  0.46325916     0.14900
C4097       C  0.90470012  0.43465054  0.55577187     0.30300
C4098       C  0.88612369  0.44253780  0.56096786    -0.36000
C4099       C  0.88460895  0.46331607  0.56072516     0.16300
C4100       C  0.90023776  0.47529836  0.55532659     0.22100
C4101       C  0.91881333  0.46747524  0.55058385    -0.34200
C4102       C  0.92041381  0.44684885  0.55119154     0.16200
O4103       O  0.90936383  0.41570924  0.55429589    -0.26200
C4104       C  0.92837832  0.41590923  0.54908776     0.06000
C4105       C  0.93603701  0.43486628  0.54705816    -0.31100
O4106       O  0.89547368  0.49414497  0.55495217    -0.22900
C4107       C  0.87664744  0.49446959  0.56053727    -0.02900
C4108       C  0.86902953  0.47573093  0.56453269    -0.17300
H4109       H  0.87370248  0.43315043  0.56468933     0.20700
H4110       H  0.93111943  0.47684715  0.54645172     0.19100
H4111       H  0.95077628  0.43915339  0.54251726     0.19000
H4112       H  0.85413775  0.47183076  0.56890357     0.14900
C4113       C  0.91929996  0.56987941  0.61851195     0.30300
C4114       C  0.92672943  0.57535469  0.63720698    -0.36000
C4115       C  0.94739807  0.57510686  0.63921352     0.16300
C4116       C  0.95972288  0.56945402  0.62391893     0.22100
C4117       C  0.95235458  0.56441701  0.60517337    -0.34200
C4118       C  0.93179377  0.56502533  0.60308398     0.16200
O4119       O  0.90051060  0.56818265  0.61356997    -0.26200
C4120       C  0.90104751  0.56256615  0.59465405     0.06000
C4121       C  0.92011020  0.56047961  0.58729847    -0.31100
O4122       O  0.97838426  0.56897962  0.62923985    -0.22900
C4123       C  0.97820811  0.57473329  0.64808286    -0.02900
C4124       C  0.95934879  0.57896998  0.65514470    -0.17300
H4125       H  0.91706808  0.57920146  0.64939908     0.20700
H4126       H  0.96198990  0.55999743  0.59314975     0.19100
H4127       H  0.92464721  0.55550516  0.57273669     0.19000
H4128       H  0.95505381  0.58342505  0.66993902     0.14900
C4129       C  0.93806261  0.71234379  0.86911417     0.30300
C4130       C  0.93421615  0.71743731  0.88883987    -0.36000
C4131       C  0.94475753  0.70687150  0.90314035     0.16300
C4132       C  0.95842942  0.69244895  0.89840381     0.22100
C4133       C  0.96239575  0.68740376  0.87856695    -0.34200
C4134       C  0.95154677  0.69779583  0.86419694     0.16200
O4135       O  0.92899733  0.71969175  0.85357191    -0.26200
C4136       C  0.93656603  0.70969497  0.83840358     0.06000
C4137       C  0.95072678  0.69583294  0.84405160    -0.31100
O4138       O  0.96569824  0.68371518  0.91428188    -0.22900
C4139       C  0.95642092  0.69261203  0.92926996    -0.02900
C4140       C  0.94328044  0.70716822  0.92320940    -0.17300
H4141       H  0.92325232  0.72843401  0.89277731     0.20700
H4142       H  0.97268105  0.67575892  0.87465885     0.19100
H4143       H  0.95889199  0.68563361  0.83475785     0.19000
H4144       H  0.93351966  0.71611631  0.93224498     0.14900
C4145       C  0.03708109  0.77181758  0.00428944     0.30300
C4146       C  0.03836485  0.75106159  0.00290435    -0.36000
C4147       C  0.02030619  0.74080132  0.00194843     0.16300
C4148       C  0.00228459  0.75035356  0.00268511     0.22100
C4149       C  0.00099777  0.77102316  0.00421370    -0.34200
C4150       C  0.01899643  0.78126225  0.00483123     0.16200
O4151       O  0.05199182  0.78442566  0.00351161    -0.26200
C4152       C  0.04331466  0.80214039  0.00344854     0.06000
C4153       C  0.02280278  0.80104950  0.00432524    -0.31100
O4154       O  0.98728289  0.73813074  0.00051727    -0.22900
C4155       C  0.99568132  0.72046329  0.99821207    -0.02900
C4156       C  0.01624607  0.72116893  0.99898944    -0.17300
H4157       H  0.05243884  0.74352079  0.00179964     0.20700
H4158       H  0.98692204  0.77864430  0.00410173     0.19100
H4159       H  0.01222616  0.81305568  0.00359059     0.19000
H4160       H  0.02663007  0.70912526  0.99707245     0.14900
C4161       C  0.89811469  0.57496943  0.18595049     0.30300
C4162       C  0.87951440  0.56908138  0.17894499    -0.36000
C4163       C  0.86320924  0.57763047  0.18844409     0.16300
C4164       C  0.86507834  0.59079521  0.20401014     0.22100
C4165       C  0.88368892  0.59660169  0.21109801    -0.34200
C4166       C  0.90000642  0.58835564  0.20132645     0.16200
O4167       O  0.91527531  0.56988610  0.17830388    -0.26200
C4168       C  0.92830110  0.58031162  0.18874413     0.06000
C4169       C  0.91969365  0.59207001  0.20329780    -0.31100
O4170       O  0.84793039  0.59794586  0.20983066    -0.22900
C4171       C  0.83495032  0.58935760  0.19776292    -0.02900
C4172       C  0.84358121  0.57651441  0.18418230    -0.17300
H4173       H  0.87789028  0.55915438  0.16644271     0.20700
H4174       H  0.88532236  0.60741929  0.22283695     0.19100
H4175       H  0.92685614  0.60222902  0.21343575     0.19000
H4176       H  0.83651837  0.56827479  0.17237070     0.14900
C4177       C  0.99208773  0.53306021  0.28946831     0.30300
C4178       C  0.99058029  0.55125983  0.27954131    -0.36000
C4179       C  0.99415348  0.55074193  0.25904247     0.16300
C4180       C  0.99864576  0.53348075  0.24899889     0.22100
C4181       C  0.00047258  0.51541419  0.25894555    -0.34200
C4182       C  0.99707909  0.51596909  0.27938705     0.16200
O4183       O  0.98832472  0.52977716  0.30839588    -0.26200
C4184       C  0.99111675  0.51036055  0.31035873     0.06000
C4185       C  0.99665778  0.50109036  0.29281857    -0.31100
O4186       O  0.99972339  0.53601948  0.22968655    -0.22900
C4187       C  0.99622001  0.55522573  0.22730405    -0.02900
C4188       C  0.99276852  0.56517901  0.24505017    -0.17300
H4189       H  0.98639347  0.56474684  0.28714397     0.20700
H4190       H  0.00372322  0.50175341  0.25119014     0.19100
H4191       H  0.99927717  0.48548652  0.29019988     0.19000
H4192       H  0.98862107  0.58051987  0.24717073     0.14900
C4193       C  0.97173423  0.62890101  0.06080790     0.30300
C4194       C  0.97820772  0.61172752  0.07040556    -0.36000
C4195       C  0.97464446  0.61087786  0.09078624     0.16300
C4196       C  0.96569102  0.62606937  0.10114846     0.22100
C4197       C  0.95883941  0.64314965  0.09144983    -0.34200
C4198       C  0.96210744  0.64385104  0.07091640     0.16200
O4199       O  0.97388509  0.63280112  0.04186566    -0.26200
C4200       C  0.96531767  0.65035635  0.03963874     0.06000
C4201       C  0.95757151  0.65796805  0.05717757    -0.31100
O4202       O  0.96506748  0.62260168  0.12036494    -0.22900
C4203       C  0.97335091  0.60480690  0.12215885    -0.02900
C4204       C  0.97946612  0.59675278  0.10425343    -0.17300
H4205       H  0.98567820  0.59991983  0.06253978     0.20700
H4206       H  0.95169393  0.65511673  0.09937466     0.19100
H4207       H  0.94998164  0.67189436  0.05947082     0.19000
H4208       H  0.98718788  0.58294109  0.10169601     0.14900
C4209       C  0.19496128  0.62867273  0.08225822     0.30300
C4210       C  0.20704540  0.64106574  0.09373970    -0.36000
C4211       C  0.20501533  0.66144462  0.09029307     0.16300
C4212       C  0.19186076  0.66912349  0.07666944     0.22100
C4213       C  0.18004436  0.65674101  0.06497928    -0.34200
C4214       C  0.18219310  0.63640023  0.06830470     0.16200
O4215       O  0.19375625  0.60920293  0.08353326    -0.26200
C4216       C  0.18017155  0.60449585  0.07007536     0.06000
C4217       C  0.17255413  0.62080464  0.06012954    -0.31100
O4218       O  0.19135572  0.68862770  0.07687974    -0.22900
C4219       C  0.20455766  0.69349630  0.09062104    -0.02900
C4220       C  0.21361582  0.67721881  0.09937261    -0.17300
H4221       H  0.21700168  0.63526860  0.10486012     0.20700
H4222       H  0.16956730  0.66256898  0.05436523     0.19100
H4223       H  0.16114730  0.62113674  0.04888377     0.19000
H4224       H  0.22424660  0.67705636  0.11135987     0.14900
C4225       C  0.26094329  0.53985525  0.98708427     0.30300
C4226       C  0.24035886  0.54228219  0.98504829    -0.36000
C4227       C  0.22914039  0.54049059  0.00249964     0.16300
C4228       C  0.23766189  0.53635113  0.02059315     0.22100
C4229       C  0.25818722  0.53401719  0.02263442    -0.34200
C4230       C  0.26939317  0.53608354  0.00529066     0.16200
O4231       O  0.27428930  0.54164329  0.97291677    -0.26200
C4232       C  0.29151539  0.53919768  0.98220455     0.06000
C4233       C  0.28936291  0.53574843  0.00239729    -0.31100
O4234       O  0.22465168  0.53594657  0.03509625    -0.22900
C4235       C  0.20747833  0.53995793  0.02634579    -0.02900
C4236       C  0.20933745  0.54296092  0.00600305    -0.17300
H4237       H  0.23362479  0.54575620  0.97093283     0.20700
H4238       H  0.26498976  0.53125127  0.03687558     0.19100
H4239       H  0.30084021  0.53362253  0.01336211     0.19000
H4240       H  0.19792567  0.54694022  0.99550142     0.14900
C4241       C  0.06801947  0.56893909  0.14374674     0.30300
C4242       C  0.08510148  0.55757159  0.14061984    -0.36000
C4243       C  0.09540688  0.56128113  0.12297316     0.16300
C4244       C  0.08920650  0.57500110  0.10916713     0.22100
C4245       C  0.07234617  0.58665586  0.11249075    -0.34200
C4246       C  0.06224157  0.58321454  0.13032159     0.16200
O4247       O  0.05508068  0.56655943  0.15818786    -0.26200
C4248       C  0.04120183  0.57996527  0.15432910     0.06000
C4249       C  0.04488640  0.59074874  0.13720523    -0.31100
O4250       O  0.10058959  0.57534877  0.09326789    -0.22900
C4251       C  0.11440131  0.56185239  0.09709121    -0.02900
C4252       C  0.11195433  0.55270660  0.11538552    -0.17300
H4253       H  0.08972428  0.54623629  0.15094548     0.20700
H4254       H  0.06720909  0.59734652  0.10173092     0.19100
H4255       H  0.03519713  0.60119675  0.12989202     0.19000
H4256       H  0.12093399  0.54120447  0.12198279     0.14900
C4257       C  0.82608114  0.37854203  0.94990002     0.30300
C4258       C  0.83578952  0.39296761  0.96123936    -0.36000
C4259       C  0.83102459  0.41266226  0.95685121     0.16300
C4260       C  0.81776160  0.41783557  0.94219316     0.22100
C4261       C  0.80775948  0.40339872  0.93111603    -0.34200
C4262       C  0.81241594  0.38369478  0.93560952     0.16200
O4263       O  0.82900928  0.35927813  0.95083155    -0.26200
C4264       C  0.81690345  0.35201459  0.93711291     0.06000
C4265       C  0.80612255  0.36648852  0.92724659    -0.31100
O4266       O  0.81666466  0.43713899  0.93960335    -0.22900
C4267       C  0.82919923  0.44438722  0.95294466    -0.02900
C4268       C  0.83845303  0.42987096  0.96419101    -0.17300
H4269       H  0.84665481  0.38912268  0.97235617     0.20700
H4270       H  0.79746579  0.40726068  0.91947152     0.19100
H4271       H  0.79565913  0.36461589  0.91525325     0.19000
H4272       H  0.84972476  0.43171641  0.97542936     0.14900
C4273       C  0.77043427  0.51372581  0.00418621     0.30300
C4274       C  0.76074721  0.51464734  0.02251443    -0.36000
C4275       C  0.74006117  0.51348302  0.02194187     0.16300
C4276       C  0.72948048  0.51126366  0.00459806     0.22100
C4277       C  0.73919804  0.51057199  0.98617094    -0.34200
C4278       C  0.75995917  0.51201575  0.98671430     0.16200
O4279       O  0.78974734  0.51364467  0.00142482    -0.26200
C4280       C  0.79176799  0.51216516  0.98187775     0.06000
C4281       C  0.77372197  0.51116674  0.97194865    -0.31100
O4282       O  0.71023015  0.50942054  0.00778040    -0.22900
C4283       C  0.70854770  0.51075900  0.02742010    -0.02900
C4284       C  0.72664404  0.51335539  0.03688852    -0.17300
H4285       H  0.76880530  0.51585398  0.03631763     0.20700
H4286       H  0.73118273  0.50871978  0.97241645     0.19100
H4287       H  0.77116560  0.50918394  0.95624019     0.19000
H4288       H  0.72955299  0.51429689  0.05263429     0.14900
C4289       C  0.90007326  0.61075161  0.97181345     0.30300
C4290       C  0.88168789  0.60235821  0.97651743    -0.36000
C4291       C  0.87685067  0.58481795  0.96649794     0.16300
C4292       C  0.88914170  0.57629833  0.95256056     0.22100
C4293       C  0.90760699  0.58463417  0.94794542    -0.34200
C4294       C  0.91260018  0.60199742  0.95824060     0.16200
O4295       O  0.90770571  0.62683568  0.97979510    -0.26200
C4296       C  0.92547328  0.62829319  0.97147018     0.06000
C4297       C  0.92940500  0.61319502  0.95798262    -0.31100
O4298       O  0.88232264  0.55920171  0.94604983    -0.22900
C4299       C  0.86546527  0.55673671  0.95590879    -0.02900
C4300       C  0.86137603  0.57211572  0.96897347    -0.17300
H4301       H  0.87207916  0.60876081  0.98763465     0.20700
H4302       H  0.91764159  0.57770313  0.93754576     0.19100
H4303       H  0.94260267  0.61092729  0.94919955     0.19000
H4304       H  0.84947923  0.57310859  0.97965373     0.14900
C4305       C  0.07530769  0.33594193  0.11610289     0.30300
C4306       C  0.08492019  0.32475496  0.13067370    -0.36000
C4307       C  0.08062501  0.32987841  0.15033069     0.16300
C4308       C  0.06791185  0.34508580  0.15533434     0.22100
C4309       C  0.05808264  0.35608585  0.14076611    -0.34200
C4310       C  0.06220554  0.35081512  0.12111122     0.16200
O4311       O  0.07781891  0.33431461  0.09680708    -0.26200
C4312       C  0.06594407  0.34812809  0.08939975     0.06000
C4313       C  0.05578242  0.35877843  0.10379922    -0.31100
O4314       O  0.06690843  0.34802051  0.17461465    -0.22900
C4315       C  0.07897384  0.33437521  0.18203126    -0.02900
C4316       C  0.08785414  0.32261508  0.16763190    -0.17300
H4317       H  0.09529576  0.31312951  0.12694998     0.20700
H4318       H  0.04819287  0.36813053  0.14448480     0.19100
H4319       H  0.04574157  0.37109505  0.10179250     0.19000
H4320       H  0.09860864  0.31091435  0.16961366     0.14900
C4321       C  0.01587199  0.28715028  0.01876760     0.30300
C4322       C  0.99770723  0.27729955  0.01688931    -0.36000
C4323       C  0.99798301  0.25681251  0.02034244     0.16300
C4324       C  0.01492178  0.24659548  0.02535928     0.22100
C4325       C  0.03321894  0.25640351  0.02680075    -0.34200
C4326       C  0.03296859  0.27693287  0.02324647     0.16200
O4327       O  0.01863890  0.30649330  0.01790327    -0.26200
C4328       C  0.03784173  0.30872987  0.02155836     0.06000
C4329       C  0.04753350  0.29082367  0.02482078    -0.31100
O4330       O  0.01141157  0.22771296  0.02934222    -0.22900
C4331       C  0.99196911  0.22584074  0.02669246    -0.02900
C4332       C  0.98294978  0.24347082  0.02098379    -0.17300
H4333       H  0.98415171  0.28517741  0.01367250     0.20700
H4334       H  0.04658957  0.24870290  0.03104605     0.19100
H4335       H  0.06280856  0.28852314  0.02900636     0.19000
H4336       H  0.96739110  0.24622930  0.01843673     0.14900
C4337       C  0.09530582  0.44376749  0.04560166     0.30300
C4338       C  0.09384169  0.46443335  0.04407030    -0.36000
C4339       C  0.11122881  0.47511155  0.04790593     0.16300
C4340       C  0.12874508  0.46616995  0.05340319     0.22100
C4341       C  0.13023626  0.44550201  0.05481797    -0.34200
C4342       C  0.11296644  0.43479561  0.05054952     0.16200
O4343       O  0.08115688  0.43084163  0.04176300    -0.26200
C4344       C  0.08995833  0.41337290  0.04405920     0.06000
C4345       C  0.10973023  0.41494244  0.04952952    -0.31100
O4346       O  0.14307689  0.47907324  0.05660161    -0.22900
C4347       C  0.13469712  0.49644542  0.05268845    -0.02900
C4348       C  0.11494945  0.49488050  0.04715497    -0.17300
H4349       H  0.08021265  0.47165835  0.03980567     0.20700
H4350       H  0.14397830  0.43825717  0.05866159     0.19100
H4351       H  0.12027992  0.40314311  0.05196740     0.19000
H4352       H  0.10473973  0.50667286  0.04352120     0.14900
C4353       C  0.14762671  0.45425487  0.82392101     0.30300
C4354       C  0.13488521  0.46599336  0.83523329    -0.36000
C4355       C  0.11472348  0.46212671  0.83286756     0.16300
C4356       C  0.10748433  0.44759645  0.82039508     0.22100
C4357       C  0.12024849  0.43601744  0.80882891    -0.34200
C4358       C  0.14046411  0.44003173  0.81104541     0.16200
O4359       O  0.16705677  0.45460872  0.82466647    -0.26200
C4360       C  0.17239619  0.44061203  0.81192016     0.06000
C4361       C  0.15652086  0.43113201  0.80288162    -0.31100
O4362       O  0.08806954  0.44598244  0.82130831    -0.22900
C4363       C  0.08294493  0.45983134  0.83436184    -0.02900
C4364       C  0.09889295  0.47032498  0.84197325    -0.17300
H4365       H  0.14032300  0.47708602  0.84546833     0.20700
H4366       H  0.11484297  0.42447118  0.79909307     0.19100
H4367       H  0.15680497  0.41885665  0.79254670     0.19000
H4368       H  0.09884213  0.48194137  0.85305069     0.14900
C4369       C  0.01612207  0.54129195  0.75320348     0.30300
C4370       C  0.01513669  0.54308299  0.77396449    -0.36000
C4371       C  0.01574547  0.52528399  0.78472916     0.16300
C4372       C  0.01689743  0.50701362  0.77561282     0.22100
C4373       C  0.01792052  0.50523228  0.75491258    -0.34200
C4374       C  0.01759361  0.52299604  0.74419244     0.16200
O4375       O  0.01699118  0.55598246  0.74033621    -0.26200
C4376       C  0.01915219  0.54698434  0.72286863     0.06000
C4377       C  0.01960342  0.52644548  0.72439070    -0.31100
O4378       O  0.01792047  0.49233670  0.78840646    -0.22900
C4379       C  0.01759555  0.50121346  0.80602685    -0.02900
C4380       C  0.01631571  0.52176235  0.80468352    -0.17300
H4381       H  0.01451796  0.55737291  0.78122427     0.20700
H4382       H  0.01941855  0.49098663  0.74769260     0.19100
H4383       H  0.02180995  0.51567849  0.71269930     0.19000
H4384       H  0.01628082  0.53249747  0.81660938     0.14900
C4385       C  0.95553505  0.48150700  0.90303223     0.30300
C4386       C  0.94706131  0.48700764  0.92118456    -0.36000
C4387       C  0.92640067  0.48607084  0.92215354     0.16300
C4388       C  0.91486901  0.48039391  0.90625073     0.22100
C4389       C  0.92338496  0.47443290  0.88823403    -0.34200
C4390       C  0.94408350  0.47510562  0.88734684     0.16200
O4391       O  0.97448603  0.48194266  0.89867648    -0.26200
C4392       C  0.97524365  0.47545787  0.88007754     0.06000
C4393       C  0.95681101  0.47078444  0.87226750    -0.31100
O4394       O  0.89581304  0.48184111  0.91003552    -0.22900
C4395       C  0.89515569  0.48820443  0.92869176    -0.02900
C4396       C  0.91373161  0.49095866  0.93705348    -0.17300
H4397       H  0.95594232  0.49197738  0.93357204     0.20700
H4398       H  0.91448371  0.46991289  0.87569303     0.19100
H4399       H  0.95331265  0.46545715  0.85754684     0.19000
H4400       H  0.91732638  0.49652010  0.95166708     0.14900
C4401       C  0.04257457  0.41018268  0.92021275     0.30300
C4402       C  0.03718538  0.39334257  0.93106591    -0.36000
C4403       C  0.04901048  0.38897423  0.94753318     0.16300
C4404       C  0.06528667  0.40016351  0.95277223     0.22100
C4405       C  0.07065375  0.41705992  0.94192551    -0.34200
C4406       C  0.05854038  0.42169111  0.92570391     0.16200
O4407       O  0.03308150  0.41740981  0.90478721    -0.26200
C4408       C  0.04286342  0.43395379  0.90055012     0.06000
C4409       C  0.05881619  0.43742722  0.91308637    -0.31100
O4410       O  0.07319177  0.39436287  0.96966080    -0.22900
C4411       C  0.06181103  0.37931473  0.97528995    -0.02900
C4412       C  0.04648304  0.37538490  0.96217092    -0.17300
H4413       H  0.02422841  0.38468528  0.92736694     0.20700
H4414       H  0.08289521  0.42640648  0.94632917     0.19100
H4415       H  0.06911859  0.44969289  0.91285071     0.19000
H4416       H  0.03440659  0.36501645  0.96394787     0.14900
loop_ 
_geom_bond_atom_site_label_1 
_geom_bond_atom_site_label_2 
_geom_bond_distance 
_geom_bond_site_symmetry_2 
_ccdc_geom_bond_type 
O1           Ni9   1.924       .  S
O1           C11   1.282       .  A
O2           Ni9   1.934       .  S
O2           C12   1.284       .  A
O3           Ni9   1.906       .  S
O3           C13   1.278   1_455  A
O4           Ni9   1.898       .  S
O4           C14   1.278       .  A
O5          Ni10   1.924       .  S
O5           C14   1.282       .  A
O6          Ni10   1.926   1_655  S
O6           C13   1.282       .  A
O7          Ni10   1.912       .  S
O7           C12   1.279       .  A
O8          Ni10   1.915       .  S
O8           C11   1.279       .  A
Ni9         Ni10   2.390       .  S
C11        C4408   1.467       .  S
C12        C4379   1.474       .  S
C13        C4392   1.464       .  S
C14        C4363   1.461       .  S
O15         Ni23   1.927       .  S
O15          C25   1.282       .  A
O16         Ni23   1.927       .  S
O16          C26   1.283       .  A
O17         Ni23   1.911       .  S
O17          C27   1.279       .  A
O18         Ni23   1.906       .  S
O18          C28   1.278   1_554  A
O19         Ni24   1.928       .  S
O19          C28   1.282   1_554  A
O20         Ni24   1.918       .  S
O20          C27   1.281       .  A
O21         Ni24   1.918       .  S
O21          C26   1.281       .  A
O22         Ni24   1.913       .  S
O22          C25   1.280       .  A
Ni23        Ni24   2.391       .  S
C25        C4344   1.470       .  S
C26        C4328   1.474       .  S
C27        C4312   1.463       .  S
C28        C4411   1.462       .  S
O29         Ni37   1.922       .  S
O29          C39   1.282       .  A
O30         Ni37   1.923       .  S
O30          C40   1.282       .  A
O31         Ni37   1.912       .  S
O31          C41   1.280       .  A
O32         Ni37   1.909       .  S
O32          C42   1.278       .  A
O33         Ni38   1.927       .  S
O33          C42   1.282       .  A
O34         Ni38   1.916       .  S
O34          C41   1.280       .  A
O35         Ni38   1.920       .  S
O35          C40   1.281       .  A
O36         Ni38   1.914       .  S
O36          C39   1.279       .  A
Ni37        Ni38   2.391       .  S
C39        C4395   1.466       .  S
C40        C4280   1.474       .  S
C41        C4267   1.463       .  S
C42        C4299   1.463       .  S
O43         Ni51   1.930       .  S
O43          C53   1.283       .  A
O44         Ni51   1.940       .  S
O44          C54   1.286       .  A
O45         Ni51   1.909       .  S
O45          C55   1.279       .  A
O46         Ni51   1.901       .  S
O46          C56   1.278       .  A
O47         Ni52   1.928       .  S
O47          C56   1.283       .  A
O48         Ni52   1.927       .  S
O48          C55   1.282       .  A
O49         Ni52   1.907       .  S
O49          C54   1.278       .  A
O50         Ni52   1.910       .  S
O50          C53   1.279       .  A
Ni51        Ni52   2.390       .  S
C53        C4251   1.471       .  S
C54        C4235   1.476       .  S
C55        C4347   1.467       .  S
C56        C4216   1.465       .  S
O57         Ni65   1.919       .  S
O57          C67   1.282       .  A
O58         Ni65   1.918       .  S
O58          C68   1.281       .  A
O59         Ni65   1.911       .  S
O59          C69   1.279       .  A
O60         Ni65   1.906   1_455  S
O60          C70   1.277       .  A
O61         Ni66   1.929   1_455  S
O61          C70   1.283       .  A
O62         Ni66   1.918       .  S
O62          C69   1.281       .  A
O63         Ni66   1.914       .  S
O63          C68   1.280       .  A
O64         Ni66   1.913       .  S
O64          C67   1.279       .  A
Ni65        Ni66   2.392       .  S
C67        C4203   1.464       .  S
C68        C4187   1.466       .  S
C69        C4168   1.463       .  S
C70        C4248   1.463       .  S
O71         Ni79   1.929       .  S
O71          C81   1.284       .  A
O72         Ni79   1.936       .  S
O72          C82   1.285       .  A
O73         Ni79   1.909   1_554  S
O73          C83   1.279       .  A
O74         Ni79   1.909       .  S
O74          C84   1.278       .  A
O75         Ni80   1.923       .  S
O75          C84   1.283       .  A
O76         Ni80   1.924   1_554  S
O76          C83   1.282       .  A
O77         Ni80   1.905       .  S
O77          C82   1.278       .  A
O78         Ni80   1.910       .  S
O78          C81   1.278       .  A
Ni79        Ni80   2.391       .  S
C81        C4296   1.469       .  S
C82        C4155   1.472       .  S
C83        C4200   1.465       .  S
C84        C4139   1.467       .  S
O85         Ni93   1.923       .  S
O85          C95   1.283       .  A
O86         Ni93   1.929       .  S
O86          C96   1.283       .  A
O87         Ni93   1.910       .  S
O87          C97   1.279       .  A
O88         Ni93   1.902       .  S
O88          C98   1.277       .  A
O89         Ni94   1.936       .  S
O89          C98   1.284       .  A
O90         Ni94   1.928       .  S
O90          C97   1.283       .  A
O91         Ni94   1.909       .  S
O91          C96   1.279       .  A
O92         Ni94   1.913       .  S
O92          C95   1.279       .  A
Ni93        Ni94   2.391       .  S
C95        C4120   1.467       .  S
C96        C4088   1.471       .  S
C97        C4072   1.471       .  S
C98        C4107   1.466       .  S
O99        Ni107   1.925       .  S
O99         C109   1.283       .  A
O100       Ni107   1.936       .  S
O100        C110   1.284       .  A
O101       Ni107   1.899       .  S
O101        C111   1.277       .  A
O102       Ni107   1.904       .  S
O102        C112   1.277       .  A
O103       Ni108   1.921       .  S
O103        C112   1.282       .  A
O104       Ni108   1.928       .  S
O104        C111   1.282       .  A
O105       Ni108   1.909       .  S
O105        C110   1.280       .  A
O106       Ni108   1.915       .  S
O106        C109   1.279       .  A
Ni107      Ni108   2.392       .  S
C109       C4104   1.469       .  S
C110       C4043   1.477       .  S
C111       C4059   1.459       .  S
C112       C4024   1.462       .  S
O113       Ni121   1.920       .  S
O113        C123   1.282       .  A
O114       Ni121   1.929       .  S
O114        C124   1.283       .  A
O115       Ni121   1.904       .  S
O115        C125   1.278       .  A
O116       Ni121   1.900   1_455  S
O116        C126   1.277       .  A
O117       Ni122   1.931   1_455  S
O117        C126   1.283       .  A
O118       Ni122   1.924       .  S
O118        C125   1.282       .  A
O119       Ni122   1.902       .  S
O119        C124   1.278       .  A
O120       Ni122   1.907       .  S
O120        C123   1.277       .  A
Ni121      Ni122   2.392       .  S
C123       C4056   1.460       .  S
C124       C4184   1.468       .  S
C125       C3992   1.465       .  S
C126       C4008   1.464       .  S
O127       Ni135   1.919       .  S
O127        C137   1.281       .  A
O128       Ni135   1.931       .  S
O128        C138   1.284       .  A
O129       Ni135   1.902       .  S
O129        C139   1.278       .  A
O130       Ni135   1.907       .  S
O130        C140   1.277       .  A
O131       Ni136   1.924       .  S
O131        C140   1.283       .  A
O132       Ni136   1.936       .  S
O132        C139   1.284       .  A
O133       Ni136   1.914       .  S
O133        C138   1.280       .  A
O134       Ni136   1.918       .  S
O134        C137   1.280       .  A
Ni135      Ni136   2.391       .  S
C137       C4011   1.466       .  S
C138       C3960   1.474       .  S
C139       C3979   1.467       .  S
C140       C3944   1.465       .  S
O141       Ni149   1.921       .  S
O141        C151   1.283       .  A
O142       Ni149   1.930       .  S
O142        C152   1.284       .  A
O143       Ni149   1.896       .  S
O143        C153   1.276   1_455  A
O144       Ni149   1.901       .  S
O144        C154   1.277       .  A
O145       Ni150   1.930       .  S
O145        C154   1.283       .  A
O146       Ni150   1.939       .  S
O146        C153   1.285   1_455  A
O147       Ni150   1.917       .  S
O147        C152   1.280       .  A
O148       Ni150   1.917       .  S
O148        C151   1.279       .  A
Ni149      Ni150   2.391       .  S
C151       C3931   1.467       .  S
C152       C4376   1.476       .  S
C153       C4123   1.465       .  S
C154       C3912   1.467       .  S
O155       Ni163   1.918       .  S
O155        C165   1.282       .  A
O156       Ni163   1.927       .  S
O156        C166   1.283       .  A
O157       Ni163   1.903       .  S
O157        C167   1.277       .  A
O158       Ni163   1.898       .  S
O158        C168   1.276       .  A
O159       Ni164   1.938       .  S
O159        C168   1.285       .  A
O160       Ni164   1.927       .  S
O160        C167   1.283       .  A
O161       Ni164   1.914       .  S
O161        C166   1.280       .  A
O162       Ni164   1.922       .  S
O162        C165   1.280       .  A
Ni163      Ni164   2.391       .  S
C165       C3976   1.469       .  S
C166       C3896   1.471       .  S
C167       C3883   1.463       .  S
C168       C3928   1.466       .  S
O169       Ni177   1.923       .  S
O169        C179   1.283       .  A
O170       Ni177   1.931       .  S
O170        C180   1.284       .  A
O171       Ni177   1.910       .  S
O171        C181   1.279       .  A
O172       Ni177   1.903       .  S
O172        C182   1.277       .  A
O173       Ni178   1.941       .  S
O173        C182   1.286       .  A
O174       Ni178   1.931       .  S
O174        C181   1.284       .  A
O175       Ni178   1.905       .  S
O175        C180   1.277       .  A
O176       Ni178   1.906       .  S
O176        C179   1.277       .  A
Ni177      Ni178   2.391       .  S
C179       C3867   1.461       .  S
C180       C3835   1.468       .  S
C181       C3819   1.472       .  S
C182       C3851   1.473       .  S
O183       Ni191   1.928       .  S
O183        C193   1.283       .  A
O184       Ni191   1.932       .  S
O184        C194   1.284       .  A
O185       Ni191   1.903       .  S
O185        C195   1.277       .  A
O186       Ni191   1.910       .  S
O186        C196   1.279       .  A
O187       Ni192   1.925       .  S
O187        C196   1.283       .  A
O188       Ni192   1.936       .  S
O188        C195   1.284       .  A
O189       Ni192   1.916       .  S
O189        C194   1.279       .  A
O190       Ni192   1.916       .  S
O190        C193   1.279       .  A
Ni191      Ni192   2.391       .  S
C193       C3848   1.470       .  S
C194       C4232   1.475       .  S
C195       C3800   1.465       .  S
C196       C3784   1.468       .  S
O197       Ni205   1.919       .  S
O197        C207   1.281       .  A
O198       Ni205   1.925       .  S
O198        C208   1.283       .  A
O199       Ni205   1.900       .  S
O199        C209   1.277       .  A
O200       Ni205   1.900   1_554  S
O200        C210   1.277       .  A
O201       Ni206   1.935   1_554  S
O201        C210   1.284       .  A
O202       Ni206   1.928       .  S
O202        C209   1.283       .  A
O203       Ni206   1.915       .  S
O203        C208   1.280       .  A
O204       Ni206   1.919       .  S
O204        C207   1.281       .  A
Ni205      Ni206   2.391       .  S
C207       C3803   1.470       .  S
C208       C3752   1.471       .  S
C209       C3739   1.463       .  S
C210       C3771   1.467       .  S
O211       Ni219   1.929       .  S
O211        C221   1.284       .  A
O212       Ni219   1.927       .  S
O212        C222   1.283       .  A
O213       Ni219   1.911       .  S
O213        C223   1.278       .  A
O214       Ni219   1.917       .  S
O214        C224   1.280       .  A
O215       Ni220   1.928       .  S
O215        C224   1.284       .  A
O216       Ni220   1.939       .  S
O216        C223   1.285       .  A
O217       Ni220   1.917       .  S
O217        C222   1.281       .  A
O218       Ni220   1.912       .  S
O218        C221   1.278       .  A
Ni219      Ni220   2.388       .  S
C221       C3768   1.468       .  S
C222       C3707   1.474       .  S
C223       C3723   1.473       .  S
C224       C3691   1.474       .  S
O225       Ni233   1.921       .  S
O225        C235   1.282       .  A
O226       Ni233   1.927       .  S
O226        C236   1.283       .  A
O227       Ni233   1.895       .  S
O227        C237   1.276   1_554  A
O228       Ni233   1.900       .  S
O228        C238   1.276       .  A
O229       Ni234   1.927       .  S
O229        C238   1.284       .  A
O230       Ni234   1.933   1_556  S
O230        C237   1.284       .  A
O231       Ni234   1.910       .  S
O231        C236   1.279       .  A
O232       Ni234   1.915       .  S
O232        C235   1.279       .  A
Ni233      Ni234   2.392       .  S
C235       C3672   1.466       .  S
C236       C3656   1.470       .  S
C237       C3864   1.461       .  S
C238       C3640   1.463       .  S
O239       Ni247   1.936       .  S
O239        C249   1.284       .  A
O240       Ni247   1.941       .  S
O240        C250   1.285       .  A
O241       Ni247   1.899       .  S
O241        C251   1.276       .  A
O242       Ni247   1.905       .  S
O242        C252   1.278       .  A
O243       Ni248   1.933       .  S
O243        C252   1.283       .  A
O244       Ni248   1.934       .  S
O244        C251   1.285       .  A
O245       Ni248   1.906       .  S
O245        C250   1.279       .  A
O246       Ni248   1.912       .  S
O246        C249   1.279       .  A
Ni247      Ni248   2.389       .  S
C249       C3720   1.473       .  S
C250       C4283   1.477       .  S
C251       C3624   1.467       .  S
C252       C3675   1.469       .  S
O253       Ni261   1.921       .  S
O253        C263   1.282       .  A
O254       Ni261   1.931       .  S
O254        C264   1.284       .  A
O255       Ni261   1.914       .  S
O255        C265   1.279       .  A
O256       Ni261   1.910       .  S
O256        C266   1.279       .  A
O257       Ni262   1.933       .  S
O257        C266   1.284       .  A
O258       Ni262   1.924       .  S
O258        C265   1.283       .  A
O259       Ni262   1.913       .  S
O259        C264   1.279       .  A
O260       Ni262   1.914       .  S
O260        C263   1.279       .  A
Ni261      Ni262   2.391       .  S
C263       C3611   1.467       .  S
C264       C3576   1.474       .  S
C265       C3563   1.470       .  S
C266       C3592   1.471       .  S
O267       Ni275   1.927       .  S
O267        C277   1.283       .  A
O268       Ni275   1.935       .  S
O268        C278   1.284       .  A
O269       Ni275   1.901       .  S
O269        C279   1.277       .  A
O270       Ni275   1.906       .  S
O270        C280   1.278       .  A
O271       Ni276   1.920       .  S
O271        C280   1.282       .  A
O272       Ni276   1.929       .  S
O272        C279   1.282       .  A
O273       Ni276   1.912       .  S
O273        C278   1.280       .  A
O274       Ni276   1.917       .  S
O274        C277   1.280       .  A
Ni275      Ni276   2.391       .  S
C277       C3595   1.471       .  S
C278       C3704   1.477       .  S
C279       C3544   1.462       .  S
C280       C3531   1.463       .  S
O281       Ni289   1.918       .  S
O281        C291   1.281       .  A
O282       Ni289   1.927       .  S
O282        C292   1.283       .  A
O283       Ni289   1.909       .  S
O283        C293   1.278       .  A
O284       Ni289   1.904       .  S
O284        C294   1.278       .  A
O285       Ni290   1.938       .  S
O285        C294   1.285       .  A
O286       Ni290   1.929       .  S
O286        C293   1.284       .  A
O287       Ni290   1.911       .  S
O287        C292   1.279       .  A
O288       Ni290   1.913       .  S
O288        C291   1.280       .  A
Ni289      Ni290   2.391       .  S
C291       C3547   1.464       .  S
C292       C4091   1.471       .  S
C293       C3499   1.469       .  S
C294       C3515   1.471       .  S
O295       Ni303   1.923       .  S
O295        C305   1.283       .  A
O296       Ni303   1.921       .  S
O296        C306   1.282       .  A
O297       Ni303   1.902       .  S
O297        C307   1.277       .  A
O298       Ni303   1.912       .  S
O298        C308   1.279       .  A
O299       Ni304   1.923       .  S
O299        C308   1.282       .  A
O300       Ni304   1.933       .  S
O300        C307   1.283       .  A
O301       Ni304   1.925       .  S
O301        C306   1.281       .  A
O302       Ni304   1.919       .  S
O302        C305   1.280       .  A
Ni303      Ni304   2.390       .  S
C305       C3512   1.470       .  S
C306       C3467   1.475       .  S
C307       C3480   1.462       .  S
C308       C3448   1.469       .  S
O309       Ni317   1.933       .  S
O309        C319   1.284       .  A
O310       Ni317   1.936       .  S
O310        C320   1.285       .  A
O311       Ni317   1.902       .  S
O311        C321   1.278       .  A
O312       Ni317   1.908       .  S
O312        C322   1.279       .  A
O313       Ni318   1.938       .  S
O313        C322   1.284       .  A
O314       Ni318   1.939       .  S
O314        C321   1.285       .  A
O315       Ni318   1.899       .  S
O315        C320   1.276       .  A
O316       Ni318   1.904       .  S
O316        C319   1.277       .  A
Ni317      Ni318   2.389       .  S
C319       C3483   1.468       .  S
C320       C3832   1.468       .  S
C321       C3416   1.474       .  S
C322       C3435   1.476       .  S
O323       Ni331   1.920       .  S
O323        C333   1.281       .  A
O324       Ni331   1.925       .  S
O324        C334   1.283       .  A
O325       Ni331   1.896       .  S
O325        C335   1.276       .  A
O326       Ni331   1.899       .  S
O326        C336   1.277       .  A
O327       Ni332   1.924       .  S
O327        C336   1.282       .  A
O328       Ni332   1.937       .  S
O328        C335   1.284       .  A
O329       Ni332   1.924       .  S
O329        C334   1.281       .  A
O330       Ni332   1.926       .  S
O330        C333   1.282       .  A
Ni331      Ni332   2.391       .  S
C333       C3432   1.471       .  S
C334       C3963   1.478       .  S
C335       C3608   1.462       .  S
C336       C3403   1.462       .  S
O337       Ni345   1.924       .  S
O337        C347   1.283       .  A
O338       Ni345   1.926       .  S
O338        C348   1.283       .  A
O339       Ni345   1.910       .  S
O339        C349   1.279       .  A
O340       Ni345   1.905       .  S
O340        C350   1.277       .  A
O341       Ni346   1.933       .  S
O341        C350   1.283       .  A
O342       Ni346   1.925       .  S
O342        C349   1.283       .  A
O343       Ni346   1.915       .  S
O343        C348   1.280       .  A
O344       Ni346   1.912       .  S
O344        C347   1.279       .  A
Ni345      Ni346   2.391       .  S
C347       C3384   1.468       .  S
C348       C3579   1.472       .  S
C349       C3355   1.468       .  S
C350       C3371   1.463       .  S
O351       Ni359   1.929       .  S
O351        C361   1.284       .  A
O352       Ni359   1.939   1_545  S
O352        C362   1.285   1_545  A
O353       Ni359   1.906       .  S
O353        C363   1.279       .  A
O354       Ni359   1.900       .  S
O354        C364   1.277       .  A
O355       Ni360   1.928       .  S
O355        C364   1.283       .  A
O356       Ni360   1.929       .  S
O356        C363   1.283       .  A
O357       Ni360   1.911       .  S
O357        C362   1.280       .  A
O358       Ni360   1.914       .  S
O358        C361   1.279       .  A
Ni359      Ni360   2.390       .  S
C361       C3368   1.472       .  S
C362       C3323   1.479   1_565  S
C363       C3339   1.468       .  S
C364       C3307   1.465       .  S
O365       Ni373   1.923       .  S
O365        C375   1.282       .  A
O366       Ni373   1.930       .  S
O366        C376   1.283       .  A
O367       Ni373   1.916       .  S
O367        C377   1.280       .  A
O368       Ni373   1.910       .  S
O368        C378   1.279       .  A
O369       Ni374   1.925       .  S
O369        C378   1.283       .  A
O370       Ni374   1.925       .  S
O370        C377   1.282       .  A
O371       Ni374   1.914       .  S
O371        C376   1.280       .  A
O372       Ni374   1.918       .  S
O372        C375   1.280       .  A
Ni373      Ni374   2.390       .  S
C375       C3291   1.469       .  S
C376       C3464   1.474       .  S
C377       C3275   1.470       .  S
C378       C3259   1.468       .  S
O379       Ni387   1.925       .  S
O379        C389   1.282       .  A
O380       Ni387   1.924   1_545  S
O380        C390   1.283       .  A
O381       Ni387   1.911       .  S
O381        C391   1.280       .  A
O382       Ni387   1.909   1_545  S
O382        C392   1.278       .  A
O383       Ni388   1.929       .  S
O383        C392   1.282       .  A
O384       Ni388   1.919   1_565  S
O384        C391   1.281       .  A
O385       Ni388   1.919       .  S
O385        C390   1.281       .  A
O386       Ni388   1.915   1_565  S
O386        C389   1.280       .  A
Ni387      Ni388   2.390   1_565  S
C389       C3336   1.469       .  S
C390       C3243   1.473       .  S
C391       C3227   1.464       .  S
C392       C3288   1.464       .  S
O393       Ni401   1.928       .  S
O393        C403   1.283       .  A
O394       Ni401   1.927       .  S
O394        C404   1.284       .  A
O395       Ni401   1.913       .  S
O395        C405   1.280       .  A
O396       Ni401   1.909       .  S
O396        C406   1.277       .  A
O397       Ni402   1.935       .  S
O397        C406   1.285       .  A
O398       Ni402   1.924       .  S
O398        C405   1.282       .  A
O399       Ni402   1.922       .  S
O399        C404   1.281       .  A
O400       Ni402   1.914       .  S
O400        C403   1.279       .  A
Ni401      Ni402   2.389       .  S
C403       C3272   1.469       .  S
C404       C3192   1.477       .  S
C405       C3176   1.469       .  S
C406       C3211   1.470       .  S
O407       Ni415   1.932       .  S
O407        C417   1.283       .  A
O408       Ni415   1.938       .  S
O408        C418   1.286       .  A
O409       Ni415   1.901       .  S
O409        C419   1.278       .  A
O410       Ni415   1.896       .  S
O410        C420   1.276       .  A
O411       Ni416   1.933       .  S
O411        C420   1.285       .  A
O412       Ni416   1.933       .  S
O412        C419   1.283       .  A
O413       Ni416   1.915       .  S
O413        C418   1.279       .  A
O414       Ni416   1.917       .  S
O414        C417   1.280       .  A
Ni415      Ni416   2.389       .  S
C417       C3208   1.474       .  S
C418       C3163   1.479       .  S
C419       C3387   1.467   1_545  S
C420       C3147   1.464       .  S
O421       Ni429   1.920       .  S
O421        C431   1.282       .  A
O422       Ni429   1.920       .  S
O422        C432   1.281       .  A
O423       Ni429   1.907       .  S
O423        C433   1.277   1_554  A
O424       Ni429   1.911       .  S
O424        C434   1.279       .  A
O425       Ni430   1.920       .  S
O425        C434   1.282       .  A
O426       Ni430   1.929       .  S
O426        C433   1.283   1_554  A
O427       Ni430   1.914       .  S
O427        C432   1.280       .  A
O428       Ni430   1.909       .  S
O428        C431   1.279       .  A
Ni429      Ni430   2.392       .  S
C431       C3131   1.463       .  S
C432       C3659   1.467       .  S
C433       C3112   1.463       .  S
C434       C3099   1.465       .  S
O435       Ni443   1.933       .  S
O435        C445   1.283       .  A
O436       Ni443   1.938       .  S
O436        C446   1.285       .  A
O437       Ni443   1.893       .  S
O437        C447   1.275       .  A
O438       Ni443   1.899       .  S
O438        C448   1.277       .  A
O439       Ni444   1.929       .  S
O439        C448   1.282       .  A
O440       Ni444   1.928       .  S
O440        C447   1.284       .  A
O441       Ni444   1.909       .  S
O441        C446   1.279       .  A
O442       Ni444   1.915       .  S
O442        C445   1.280       .  A
Ni443      Ni444   2.391       .  S
C445       C3080   1.473       .  S
C446       C3064   1.476       .  S
C447       C3051   1.459       .  S
C448       C3128   1.462   1_545  S
O449       Ni457   1.931       .  S
O449        C459   1.284       .  A
O450       Ni457   1.942   1_545  S
O450        C460   1.286   1_545  A
O451       Ni457   1.902       .  S
O451        C461   1.276       .  A
O452       Ni457   1.908       .  S
O452        C462   1.278       .  A
O453       Ni458   1.929       .  S
O453        C462   1.283       .  A
O454       Ni458   1.929       .  S
O454        C461   1.284       .  A
O455       Ni458   1.907       .  S
O455        C460   1.278       .  A
O456       Ni458   1.909       .  S
O456        C459   1.279       .  A
Ni457      Ni458   2.390       .  S
C459       C3115   1.469       .  S
C460       C3195   1.477   1_565  S
C461       C3019   1.465       .  S
C462       C3032   1.467       .  S
O463       Ni471   1.924       .  S
O463        C473   1.283       .  A
O464       Ni471   1.925       .  S
O464        C474   1.282       .  A
O465       Ni471   1.906       .  S
O465        C475   1.277       .  A
O466       Ni471   1.913       .  S
O466        C476   1.280       .  A
O467       Ni472   1.928       .  S
O467        C476   1.283       .  A
O468       Ni472   1.940       .  S
O468        C475   1.285       .  A
O469       Ni472   1.924       .  S
O469        C474   1.282       .  A
O470       Ni472   1.915       .  S
O470        C473   1.278       .  A
Ni471      Ni472   2.389       .  S
C473       C3000   1.468       .  S
C474       C3320   1.476       .  S
C475       C3083   1.471       .  S
C476       C2984   1.473       .  S
O477       Ni485   1.916       .  S
O477        C487   1.281       .  A
O478       Ni485   1.920       .  S
O478        C488   1.282       .  A
O479       Ni485   1.908       .  S
O479        C489   1.279       .  A
O480       Ni485   1.900   1_554  S
O480        C490   1.277       .  A
O481       Ni486   1.936   1_554  S
O481        C490   1.284       .  A
O482       Ni486   1.926       .  S
O482        C489   1.282       .  A
O483       Ni486   1.917   1_554  S
O483        C488   1.280   1_554  A
O484       Ni486   1.918       .  S
O484        C487   1.280       .  A
Ni485      Ni486   2.391       .  S
C487       C2968   1.466       .  S
C488       C3755   1.470       .  S
C489       C2955   1.468       .  S
C490       C3003   1.467       .  S
O491       Ni499   1.924       .  S
O491        C501   1.283       .  A
O492       Ni499   1.935   1_544  S
O492        C502   1.285   1_554  A
O493       Ni499   1.908   1_545  S
O493        C503   1.278       .  A
O494       Ni499   1.914       .  S
O494        C504   1.279       .  A
O495       Ni500   1.916   1_565  S
O495        C504   1.282       .  A
O496       Ni500   1.925       .  S
O496        C503   1.282       .  A
O497       Ni500   1.912       .  S
O497        C502   1.279       .  A
O498       Ni500   1.915   1_565  S
O498        C501   1.279       .  A
Ni499      Ni500   2.391   1_565  S
C501       C3035   1.468       .  S
C502       C2936   1.475   1_556  S
C503       C2971   1.463       .  S
C504       C2920   1.466       .  S
O505       Ni513   1.935       .  S
O505        C515   1.284       .  A
O506       Ni513   1.941       .  S
O506        C516   1.286       .  A
O507       Ni513   1.897       .  S
O507        C517   1.277       .  A
O508       Ni513   1.903       .  S
O508        C518   1.277       .  A
O509       Ni514   1.930       .  S
O509        C518   1.283       .  A
O510       Ni514   1.933       .  S
O510        C517   1.284       .  A
O511       Ni514   1.908       .  S
O511        C516   1.279       .  A
O512       Ni514   1.908       .  S
O512        C515   1.279       .  A
Ni513      Ni514   2.390       .  S
C515       C2907   1.472       .  S
C516       C4331   1.479       .  S
C517       C2872   1.468       .  S
C518       C2888   1.465   1_554  S
O519       Ni527   1.923       .  S
O519        C529   1.282       .  A
O520       Ni527   1.925   1_545  S
O520        C530   1.283       .  A
O521       Ni527   1.912   1_545  S
O521        C531   1.278       .  A
O522       Ni527   1.918       .  S
O522        C532   1.280       .  A
O523       Ni528   1.923   1_565  S
O523        C532   1.282       .  A
O524       Ni528   1.931       .  S
O524        C531   1.283       .  A
O525       Ni528   1.923       .  S
O525        C530   1.281       .  A
O526       Ni528   1.916   1_565  S
O526        C529   1.280       .  A
Ni527      Ni528   2.389   1_565  S
C529       C2856   1.468       .  S
C530       C2939   1.476       .  S
C531       C2904   1.468       .  S
C532       C2843   1.471       .  S
O533       Ni541   1.932       .  S
O533        C543   1.283       .  A
O534       Ni541   1.939       .  S
O534        C544   1.285       .  A
O535       Ni541   1.903       .  S
O535        C545   1.277       .  A
O536       Ni541   1.911       .  S
O536        C546   1.280       .  A
O537       Ni542   1.926       .  S
O537        C546   1.282       .  A
O538       Ni542   1.925       .  S
O538        C545   1.283       .  A
O539       Ni542   1.912       .  S
O539        C544   1.280       .  A
O540       Ni542   1.914       .  S
O540        C543   1.280       .  A
Ni541      Ni542   2.389       .  S
C543       C2827   1.472       .  S
C544       C2808   1.479   1_565  S
C545       C2792   1.463       .  S
C546       C2859   1.469   1_455  S
O547       Ni555   1.917       .  S
O547        C557   1.282       .  A
O548       Ni555   1.918       .  S
O548        C558   1.282       .  A
O549       Ni555   1.905   1_554  S
O549        C559   1.277       .  A
O550       Ni555   1.911       .  S
O550        C560   1.279       .  A
O551       Ni556   1.925       .  S
O551        C560   1.283       .  A
O552       Ni556   1.937   1_554  S
O552        C559   1.284       .  A
O553       Ni556   1.923   1_554  S
O553        C558   1.281   1_554  A
O554       Ni556   1.918       .  S
O554        C557   1.279       .  A
Ni555      Ni556   2.390       .  S
C557       C2776   1.464       .  S
C558       C4152   1.473   1_556  S
C559       C2824   1.468       .  S
C560       C2763   1.468       .  S
O561       Ni569   1.920       .  S
O561        C571   1.281       .  A
O562       Ni569   1.926       .  S
O562        C572   1.282       .  A
O563       Ni569   1.909       .  S
O563        C573   1.278       .  A
O564       Ni569   1.904       .  S
O564        C574   1.278       .  A
O565       Ni570   1.933       .  S
O565        C574   1.283       .  A
O566       Ni570   1.920       .  S
O566        C573   1.282       .  A
O567       Ni570   1.921       .  S
O567        C572   1.282       .  A
O568       Ni570   1.925       .  S
O568        C571   1.282       .  A
Ni569      Ni570   2.390       .  S
C571       C2744   1.472       .  S
C572       C3067   1.476       .  S
C573       C2731   1.464       .  S
C574       C2779   1.468   1_545  S
O575       Ni583   1.925       .  S
O575        C585   1.283       .  A
O576       Ni583   1.937       .  S
O576        C586   1.285       .  A
O577       Ni583   1.906   1_455  S
O577        C587   1.278       .  A
O578       Ni583   1.912       .  S
O578        C588   1.279       .  A
O579       Ni584   1.928       .  S
O579        C588   1.283       .  A
O580       Ni584   1.938   1_455  S
O580        C587   1.284       .  A
O581       Ni584   1.905       .  S
O581        C586   1.277       .  A
O582       Ni584   1.907       .  S
O582        C585   1.277       .  A
Ni583      Ni584   2.391       .  S
C585       C2891   1.462       .  S
C586       C2715   1.472       .  S
C587       C2747   1.472       .  S
C588       C2696   1.470       .  S
O589       Ni597   1.919       .  S
O589        C599   1.282       .  A
O590       Ni597   1.926       .  S
O590        C600   1.282       .  A
O591       Ni597   1.918       .  S
O591        C601   1.280       .  A
O592       Ni597   1.915   1_655  S
O592        C602   1.279       .  A
O593       Ni598   1.933   1_655  S
O593        C602   1.283       .  A
O594       Ni598   1.923       .  S
O594        C601   1.282       .  A
O595       Ni598   1.923       .  S
O595        C600   1.282       .  A
O596       Ni598   1.920       .  S
O596        C599   1.280       .  A
Ni597      Ni598   2.390       .  S
C599       C2680   1.469       .  S
C600       C2811   1.477       .  S
C601       C2651   1.471       .  S
C602       C2667   1.470       .  S
O603       Ni611   1.929       .  S
O603        C613   1.284       .  A
O604       Ni611   1.935       .  S
O604        C614   1.285       .  A
O605       Ni611   1.900       .  S
O605        C615   1.276       .  A
O606       Ni611   1.898       .  S
O606        C616   1.277       .  A
O607       Ni612   1.934       .  S
O607        C616   1.284       .  A
O608       Ni612   1.937       .  S
O608        C615   1.284       .  A
O609       Ni612   1.915       .  S
O609        C614   1.279       .  A
O610       Ni612   1.921       .  S
O610        C613   1.280       .  A
Ni611      Ni612   2.389       .  S
C613       C2664   1.477       .  S
C614       C3160   1.478       .  S
C615       C2632   1.467   1_545  S
C616       C2619   1.466       .  S
O617       Ni625   1.917       .  S
O617        C627   1.281       .  A
O618       Ni625   1.927       .  S
O618        C628   1.283       .  A
O619       Ni625   1.910       .  S
O619        C629   1.279       .  A
O620       Ni625   1.904       .  S
O620        C630   1.278       .  A
O621       Ni626   1.933       .  S
O621        C630   1.284       .  A
O622       Ni626   1.926       .  S
O622        C629   1.282       .  A
O623       Ni626   1.918       .  S
O623        C628   1.280       .  A
O624       Ni626   1.920       .  S
O624        C627   1.280       .  A
Ni625      Ni626   2.391       .  S
C627       C2635   1.468       .  S
C628       C3899   1.474       .  S
C629       C2587   1.469       .  S
C630       C2603   1.468       .  S
O631       Ni639   1.927       .  S
O631        C641   1.283       .  A
O632       Ni639   1.935       .  S
O632        C642   1.285       .  A
O633       Ni639   1.893       .  S
O633        C643   1.275       .  A
O634       Ni639   1.896       .  S
O634        C644   1.276       .  A
O635       Ni640   1.926       .  S
O635        C644   1.283       .  A
O636       Ni640   1.939       .  S
O636        C643   1.285       .  A
O637       Ni640   1.909       .  S
O637        C642   1.278       .  A
O638       Ni640   1.911       .  S
O638        C641   1.279       .  A
Ni639      Ni640   2.392       .  S
C641       C2568   1.467       .  S
C642       C4040   1.474       .  S
C643       C2683   1.464       .  S
C644       C2552   1.461       .  S
O645       Ni653   1.923       .  S
O645        C655   1.282       .  A
O646       Ni653   1.934       .  S
O646        C656   1.285       .  A
O647       Ni653   1.907       .  S
O647        C657   1.278       .  A
O648       Ni653   1.903   1_545  S
O648        C658   1.278       .  A
O649       Ni654   1.931   1_545  S
O649        C658   1.283       .  A
O650       Ni654   1.920       .  S
O650        C657   1.282       .  A
O651       Ni654   1.908   1_545  S
O651        C656   1.278   1_545  A
O652       Ni654   1.912       .  S
O652        C655   1.278       .  A
Ni653      Ni654   2.392       .  S
C655       C2536   1.461       .  S
C656       C3240   1.473   1_565  S
C657       C2520   1.462       .  S
C658       C2571   1.467       .  S
O659       Ni667   1.928       .  S
O659        C669   1.283       .  A
O660       Ni667   1.932   1_545  S
O660        C670   1.284   1_545  A
O661       Ni667   1.896   1_455  S
O661        C671   1.276       .  A
O662       Ni667   1.903       .  S
O662        C672   1.278       .  A
O663       Ni668   1.924       .  S
O663        C672   1.282       .  A
O664       Ni668   1.935   1_455  S
O664        C671   1.284       .  A
O665       Ni668   1.909       .  S
O665        C670   1.278       .  A
O666       Ni668   1.912       .  S
O666        C669   1.278       .  A
Ni667      Ni668   2.391       .  S
C669       C2600   1.467       .  S
C670       C2712   1.471   1_565  S
C671       C2539   1.465       .  S
C672       C2507   1.463       .  S
O673       Ni681   1.919       .  S
O673        C683   1.281       .  A
O674       Ni681   1.926       .  S
O674        C684   1.283       .  A
O675       Ni681   1.914       .  S
O675        C685   1.280       .  A
O676       Ni681   1.904       .  S
O676        C686   1.279       .  A
O677       Ni682   1.938       .  S
O677        C686   1.284       .  A
O678       Ni682   1.931       .  S
O678        C685   1.283       .  A
O679       Ni682   1.917       .  S
O679        C684   1.280       .  A
O680       Ni682   1.920       .  S
O680        C683   1.280       .  A
Ni681      Ni682   2.390       .  S
C683       C2488   1.467       .  S
C684       C2456   1.473       .  S
C685       C3816   1.474       .  S
C686       C2472   1.472       .  S
O687       Ni695   1.921       .  S
O687        C697   1.282       .  A
O688       Ni695   1.928       .  S
O688        C698   1.283       .  A
O689       Ni695   1.904       .  S
O689        C699   1.277       .  A
O690       Ni695   1.907       .  S
O690        C700   1.279       .  A
O691       Ni696   1.927       .  S
O691        C700   1.283       .  A
O692       Ni696   1.937       .  S
O692        C699   1.285       .  A
O693       Ni696   1.915       .  S
O693        C698   1.280       .  A
O694       Ni696   1.922       .  S
O694        C697   1.281       .  A
Ni695      Ni696   2.391       .  S
C697       C2475   1.470       .  S
C698       C2424   1.473       .  S
C699       C2440   1.470       .  S
C700       C4136   1.466       .  S
O701       Ni709   1.923       .  S
O701        C711   1.283       .  A
O702       Ni709   1.924       .  S
O702        C712   1.282       .  A
O703       Ni709   1.905       .  S
O703        C713   1.278       .  A
O704       Ni709   1.900       .  S
O704        C714   1.276       .  A
O705       Ni710   1.934       .  S
O705        C714   1.284       .  A
O706       Ni710   1.929       .  S
O706        C713   1.283       .  A
O707       Ni710   1.918       .  S
O707        C712   1.280       .  A
O708       Ni710   1.918       .  S
O708        C711   1.280       .  A
Ni709      Ni710   2.391       .  S
C711       C2408   1.471       .  S
C712       C2379   1.472       .  S
C713       C3352   1.469       .  S
C714       C2392   1.461       .  S
O715       Ni723   1.923       .  S
O715        C725   1.283       .  A
O716       Ni723   1.933       .  S
O716        C726   1.284       .  A
O717       Ni723   1.910       .  S
O717        C727   1.278       .  A
O718       Ni723   1.907       .  S
O718        C728   1.278       .  A
O719       Ni724   1.926       .  S
O719        C728   1.282       .  A
O720       Ni724   1.928       .  S
O720        C727   1.283       .  A
O721       Ni724   1.908       .  S
O721        C726   1.279       .  A
O722       Ni724   1.913       .  S
O722        C725   1.279       .  A
Ni723      Ni724   2.391       .  S
C725       C2395   1.469       .  S
C726       C2360   1.473       .  S
C727       C2491   1.469       .  S
C728       C2923   1.466       .  S
O729       Ni737   1.924       .  S
O729        C739   1.283       .  A
O730       Ni737   1.933       .  S
O730        C740   1.283       .  A
O731       Ni737   1.908       .  S
O731        C741   1.279       .  A
O732       Ni737   1.901       .  S
O732        C742   1.278       .  A
O733       Ni738   1.941       .  S
O733        C742   1.285       .  A
O734       Ni738   1.930       .  S
O734        C741   1.283       .  A
O735       Ni738   1.916       .  S
O735        C740   1.281       .  A
O736       Ni738   1.919       .  S
O736        C739   1.280       .  A
Ni737      Ni738   2.390       .  S
C739       C2443   1.470       .  S
C740       C2331   1.478       .  S
C741       C4075   1.470       .  S
C742       C2347   1.472       .  S
O743       Ni751   1.925       .  S
O743        C753   1.283       .  A
O744       Ni751   1.931       .  S
O744        C754   1.284       .  A
O745       Ni751   1.901       .  S
O745        C755   1.276       .  A
O746       Ni751   1.902       .  S
O746        C756   1.278       .  A
O747       Ni752   1.925       .  S
O747        C756   1.283       .  A
O748       Ni752   1.938       .  S
O748        C755   1.285       .  A
O749       Ni752   1.913       .  S
O749        C754   1.280       .  A
O750       Ni752   1.920       .  S
O750        C753   1.281       .  A
Ni751      Ni752   2.391       .  S
C753       C2344   1.472       .  S
C754       C2312   1.474       .  S
C755       C2411   1.467       .  S
C756       C2504   1.464       .  S
O757       Ni765   1.928       .  S
O757        C767   1.283       .  A
O758       Ni765   1.933       .  S
O758        C768   1.284       .  A
O759       Ni765   1.900       .  S
O759        C769   1.277       .  A
O760       Ni765   1.906       .  S
O760        C770   1.278       .  A
O761       Ni766   1.920       .  S
O761        C770   1.282       .  A
O762       Ni766   1.925       .  S
O762        C769   1.283       .  A
O763       Ni766   1.907       .  S
O763        C768   1.279       .  A
O764       Ni766   1.908       .  S
O764        C767   1.279       .  A
Ni765      Ni766   2.391       .  S
C767       C2296   1.466       .  S
C768       C2267   1.473       .  S
C769       C2523   1.462       .  S
C770       C2283   1.462       .  S
O771       Ni779   1.923       .  S
O771        C781   1.282       .  A
O772       Ni779   1.923       .  S
O772        C782   1.283       .  A
O773       Ni779   1.912       .  S
O773        C783   1.279       .  A
O774       Ni779   1.916       .  S
O774        C784   1.281       .  A
O775       Ni780   1.918       .  S
O775        C784   1.281       .  A
O776       Ni780   1.930       .  S
O776        C783   1.283       .  A
O777       Ni780   1.912       .  S
O777        C782   1.279       .  A
O778       Ni780   1.904       .  S
O778        C781   1.277       .  A
Ni779      Ni780   2.391       .  S
C781       C2280   1.459       .  S
C782       C2232   1.468       .  S
C783       C2248   1.467       .  S
C784       C3915   1.467       .  S
O785       Ni793   1.921       .  S
O785        C795   1.282       .  A
O786       Ni793   1.927       .  S
O786        C796   1.283       .  A
O787       Ni793   1.907       .  S
O787        C797   1.278       .  A
O788       Ni793   1.914       .  S
O788        C798   1.279       .  A
O789       Ni794   1.921       .  S
O789        C798   1.282       .  A
O790       Ni794   1.930       .  S
O790        C797   1.283       .  A
O791       Ni794   1.916       .  S
O791        C796   1.280       .  A
O792       Ni794   1.914       .  S
O792        C795   1.279       .  A
Ni793      Ni794   2.391       .  S
C795       C2216   1.464       .  S
C796       C2184   1.473       .  S
C797       C2200   1.463       .  S
C798       C3787   1.467       .  S
O799       Ni807   1.928       .  S
O799        C809   1.283       .  A
O800       Ni807   1.934       .  S
O800        C810   1.284       .  A
O801       Ni807   1.903       .  S
O801        C811   1.277       .  A
O802       Ni807   1.904       .  S
O802        C812   1.279       .  A
O803       Ni808   1.930       .  S
O803        C812   1.283       .  A
O804       Ni808   1.933       .  S
O804        C811   1.285       .  A
O805       Ni808   1.909       .  S
O805        C810   1.279       .  A
O806       Ni808   1.916       .  S
O806        C809   1.279       .  A
Ni807      Ni808   2.390       .  S
C809       C2251   1.471       .  S
C810       C2376   1.475       .  S
C811       C3560   1.468       .  S
C812       C2219   1.468       .  S
O813       Ni821   1.926       .  S
O813        C823   1.283       .  A
O814       Ni821   1.924       .  S
O814        C824   1.283       .  A
O815       Ni821   1.907       .  S
O815        C825   1.278       .  A
O816       Ni821   1.916       .  S
O816        C826   1.280       .  A
O817       Ni822   1.920       .  S
O817        C826   1.282       .  A
O818       Ni822   1.927       .  S
O818        C825   1.282       .  A
O819       Ni822   1.916       .  S
O819        C824   1.280       .  A
O820       Ni822   1.913       .  S
O820        C823   1.279       .  A
Ni821      Ni822   2.390       .  S
C823       C2171   1.468       .  S
C824       C2427   1.472       .  S
C825       C2299   1.462       .  S
C826       C2760   1.468       .  S
O827       Ni835   1.926       .  S
O827        C837   1.283       .  A
O828       Ni835   1.933       .  S
O828        C838   1.284       .  A
O829       Ni835   1.903       .  S
O829        C839   1.277       .  A
O830       Ni835   1.906       .  S
O830        C840   1.278       .  A
O831       Ni836   1.930       .  S
O831        C840   1.283       .  A
O832       Ni836   1.929       .  S
O832        C839   1.283       .  A
O833       Ni836   1.913       .  S
O833        C838   1.280       .  A
O834       Ni836   1.915       .  S
O834        C837   1.280       .  A
Ni835      Ni836   2.390       .  S
C837       C2203   1.471       .  S
C838       C2152   1.476       .  S
C839       C3016   1.466       .  S
C840       C2168   1.467       .  S
O841       Ni849   1.925       .  S
O841        C851   1.283       .  A
O842       Ni849   1.933       .  S
O842        C852   1.285       .  A
O843       Ni849   1.905       .  S
O843        C853   1.277       .  A
O844       Ni849   1.902       .  S
O844        C854   1.277       .  A
O845       Ni850   1.934       .  S
O845        C854   1.284       .  A
O846       Ni850   1.923       .  S
O846        C853   1.283       .  A
O847       Ni850   1.909       .  S
O847        C852   1.278       .  A
O848       Ni850   1.915       .  S
O848        C851   1.279       .  A
Ni849      Ni850   2.392       .  S
C851       C2136   1.469       .  S
C852       C2104   1.473       .  S
C853       C3880   1.463       .  S
C854       C2120   1.464       .  S
O855       Ni863   1.917       .  S
O855        C865   1.281       .  A
O856       Ni863   1.925       .  S
O856        C866   1.283       .  A
O857       Ni863   1.905       .  S
O857        C867   1.278       .  A
O858       Ni863   1.902       .  S
O858        C868   1.278       .  A
O859       Ni864   1.928       .  S
O859        C868   1.283       .  A
O860       Ni864   1.932       .  S
O860        C867   1.283       .  A
O861       Ni864   1.914       .  S
O861        C866   1.279       .  A
O862       Ni864   1.917       .  S
O862        C865   1.280       .  A
Ni863      Ni864   2.391       .  S
C865       C2091   1.467       .  S
C866       C2075   1.471       .  S
C867       C2139   1.467       .  S
C868       C3528   1.465       .  S
O869       Ni877   1.922       .  S
O869        C879   1.283       .  A
O870       Ni877   1.931       .  S
O870        C880   1.284       .  A
O871       Ni877   1.900       .  S
O871        C881   1.277       .  A
O872       Ni877   1.907       .  S
O872        C882   1.278       .  A
O873       Ni878   1.920       .  S
O873        C882   1.282       .  A
O874       Ni878   1.929       .  S
O874        C881   1.283       .  A
O875       Ni878   1.912       .  S
O875        C880   1.279       .  A
O876       Ni878   1.915       .  S
O876        C879   1.279       .  A
Ni877      Ni878   2.392       .  S
C879       C2123   1.467       .  S
C880       C2187   1.473       .  S
C881       C2059   1.460       .  S
C882       C4219   1.463       .  S
O883       Ni891   1.918       .  S
O883        C893   1.282       .  A
O884       Ni891   1.921       .  S
O884        C894   1.282       .  A
O885       Ni891   1.910       .  S
O885        C895   1.279       .  A
O886       Ni891   1.903       .  S
O886        C896   1.277       .  A
O887       Ni892   1.927       .  S
O887        C896   1.282       .  A
O888       Ni892   1.917       .  S
O888        C895   1.281       .  A
O889       Ni892   1.916       .  S
O889        C894   1.280       .  A
O890       Ni892   1.915       .  S
O890        C893   1.279       .  A
Ni891      Ni892   2.393       .  S
C893       C2043   1.465       .  S
C894       C2264   1.469       .  S
C895       C3224   1.463       .  S
C896       C2088   1.459       .  S
O897       Ni905   1.921       .  S
O897        C907   1.282       .  A
O898       Ni905   1.928       .  S
O898        C908   1.283       .  A
O899       Ni905   1.896       .  S
O899        C909   1.276       .  A
O900       Ni905   1.903       .  S
O900        C910   1.277       .  A
O901       Ni906   1.925       .  S
O901        C910   1.283       .  A
O902       Ni906   1.934       .  S
O902        C909   1.284       .  A
O903       Ni906   1.906       .  S
O903        C908   1.278       .  A
O904       Ni906   1.907       .  S
O904        C907   1.278       .  A
Ni905      Ni906   2.392       .  S
C907       C2024   1.461       .  S
C908       C2011   1.469       .  S
C909       C2040   1.463       .  S
C910       C3096   1.464       .  S
O911       Ni919   1.924       .  S
O911        C921   1.282       .  A
O912       Ni919   1.931       .  S
O912        C922   1.284       .  A
O913       Ni919   1.901       .  S
O913        C923   1.277       .  A
O914       Ni919   1.895       .  S
O914        C924   1.276       .  A
O915       Ni920   1.931       .  S
O915        C924   1.283       .  A
O916       Ni920   1.926       .  S
O916        C923   1.283       .  A
O917       Ni920   1.903       .  S
O917        C922   1.278       .  A
O918       Ni920   1.906       .  S
O918        C921   1.278       .  A
Ni919      Ni920   2.392       .  S
C921       C2056   1.465       .  S
C922       C1992   1.468       .  S
C923       C2795   1.462       .  S
C924       C2027   1.463       .  S
O925       Ni933   1.922       .  S
O925        C935   1.282       .  A
O926       Ni933   1.924       .  S
O926        C936   1.283       .  A
O927       Ni933   1.915       .  S
O927        C937   1.280       .  A
O928       Ni933   1.909       .  S
O928        C938   1.278       .  A
O929       Ni934   1.925       .  S
O929        C938   1.282       .  A
O930       Ni934   1.918       .  S
O930        C937   1.281       .  A
O931       Ni934   1.912       .  S
O931        C936   1.279       .  A
O932       Ni934   1.912       .  S
O932        C935   1.279       .  A
Ni933      Ni934   2.392       .  S
C935       C1976   1.466       .  S
C936       C1947   1.468       .  S
C937       C2952   1.466       .  S
C938       C1963   1.461       .  S
O939       Ni947   1.918       .  S
O939        C949   1.282       .  A
O940       Ni947   1.919       .  S
O940        C950   1.282       .  A
O941       Ni947   1.915       .  S
O941        C951   1.280       .  A
O942       Ni947   1.910       .  S
O942        C952   1.278       .  A
O943       Ni948   1.935       .  S
O943        C952   1.284       .  A
O944       Ni948   1.926       .  S
O944        C951   1.282       .  A
O945       Ni948   1.921       .  S
O945        C950   1.281       .  A
O946       Ni948   1.916       .  S
O946        C949   1.279       .  A
Ni947      Ni948   2.390       .  S
C949       C1931   1.465       .  S
C950       C2459   1.471       .  S
C951       C3419   1.470       .  S
C952       C1912   1.469       .  S
O953       Ni961   1.927       .  S
O953        C963   1.283       .  A
O954       Ni961   1.935       .  S
O954        C964   1.285       .  A
O955       Ni961   1.899       .  S
O955        C965   1.276       .  A
O956       Ni961   1.897       .  S
O956        C966   1.276       .  A
O957       Ni962   1.932       .  S
O957        C966   1.285       .  A
O958       Ni962   1.932       .  S
O958        C965   1.283       .  A
O959       Ni962   1.907       .  S
O959        C964   1.278       .  A
O960       Ni962   1.911       .  S
O960        C963   1.279       .  A
Ni961      Ni962   2.391       .  S
C963       C1960   1.469       .  S
C964       C1896   1.473       .  S
C965       C1928   1.463       .  S
C966       C3144   1.464       .  S
O967       Ni975   1.928       .  S
O967        C977   1.283       .  A
O968       Ni975   1.934       .  S
O968        C978   1.284       .  A
O969       Ni975   1.902       .  S
O969        C979   1.278       .  A
O970       Ni975   1.898       .  S
O970        C980   1.277       .  A
O971       Ni976   1.940       .  S
O971        C980   1.285       .  A
O972       Ni976   1.937       .  S
O972        C979   1.284       .  A
O973       Ni976   1.909       .  S
O973        C978   1.279       .  A
O974       Ni976   1.913       .  S
O974        C977   1.278       .  A
Ni975      Ni976   2.389       .  S
C977       C1883   1.468       .  S
C978       C2315   1.474       .  S
C979       C1979   1.470       .  S
C980       C2699   1.473       .  S
O981       Ni989   1.928       .  S
O981        C991   1.283       .  A
O982       Ni989   1.936       .  S
O982        C992   1.284       .  A
O983       Ni989   1.908       .  S
O983        C993   1.278       .  A
O984       Ni989   1.900       .  S
O984        C994   1.277       .  A
O985       Ni990   1.928       .  S
O985        C994   1.283       .  A
O986       Ni990   1.928       .  S
O986        C993   1.283       .  A
O987       Ni990   1.911       .  S
O987        C992   1.280       .  A
O988       Ni990   1.916       .  S
O988        C991   1.280       .  A
Ni989      Ni990   2.390       .  S
C991       C1915   1.471       .  S
C992       C1848   1.477       .  S
C993       C1864   1.466       .  S
C994       C4027   1.463       .  S
O995      Ni1003   1.925       .  S
O995       C1005   1.283       .  A
O996      Ni1003   1.922       .  S
O996       C1006   1.283       .  A
O997      Ni1003   1.911       .  S
O997       C1007   1.279       .  A
O998      Ni1003   1.907       .  S
O998       C1008   1.278       .  A
O999      Ni1004   1.929       .  S
O999       C1008   1.283       .  A
O1000     Ni1004   1.919       .  S
O1000      C1007   1.281       .  A
O1001     Ni1004   1.917       .  S
O1001      C1006   1.280       .  A
O1002     Ni1004   1.914       .  S
O1002      C1005   1.279       .  A
Ni1003    Ni1004   2.391       .  S
C1005      C1867   1.469       .  S
C1006      C1832   1.471       .  S
C1007      C4264   1.464       .  S
C1008      C1880   1.464       .  S
O1009     Ni1017   1.917       .  S
O1009      C1019   1.282       .  A
O1010     Ni1017   1.923       .  S
O1010      C1020   1.282       .  A
O1011     Ni1017   1.913       .  S
O1011      C1021   1.280       .  A
O1012     Ni1017   1.905       .  S
O1012      C1022   1.278       .  A
O1013     Ni1018   1.930       .  S
O1013      C1022   1.282       .  A
O1014     Ni1018   1.921       .  S
O1014      C1021   1.282       .  A
O1015     Ni1018   1.921       .  S
O1015      C1020   1.282       .  A
O1016     Ni1018   1.920       .  S
O1016      C1019   1.280       .  A
Ni1017    Ni1018   2.391       .  S
C1019      C1816   1.468       .  S
C1020      C2155   1.474       .  S
C1021      C3179   1.467       .  S
C1022      C1800   1.462       .  S
O1023     Ni1031   1.931       .  S
O1023      C1033   1.284       .  A
O1024     Ni1031   1.937       .  S
O1024      C1034   1.285       .  A
O1025     Ni1031   1.898       .  S
O1025      C1035   1.276       .  A
O1026     Ni1031   1.894       .  S
O1026      C1036   1.276       .  A
O1027     Ni1032   1.926       .  S
O1027      C1036   1.283       .  A
O1028     Ni1032   1.932       .  S
O1028      C1035   1.283       .  A
O1029     Ni1032   1.907       .  S
O1029      C1034   1.278       .  A
O1030     Ni1032   1.907       .  S
O1030      C1033   1.279       .  A
Ni1031    Ni1032   2.391       .  S
C1033      C1803   1.471       .  S
C1034      C1851   1.475       .  S
C1035      C1784   1.461       .  S
C1036      C2555   1.460       .  S
O1037     Ni1045   1.920       .  S
O1037      C1047   1.282       .  A
O1038     Ni1045   1.930       .  S
O1038      C1048   1.284       .  A
O1039     Ni1045   1.897       .  S
O1039      C1049   1.276       .  A
O1040     Ni1045   1.902       .  S
O1040      C1050   1.277       .  A
O1041     Ni1046   1.922       .  S
O1041      C1050   1.282       .  A
O1042     Ni1046   1.935       .  S
O1042      C1049   1.284       .  A
O1043     Ni1046   1.910       .  S
O1043      C1048   1.279       .  A
O1044     Ni1046   1.913       .  S
O1044      C1047   1.279       .  A
Ni1045    Ni1046   2.392       .  S
C1047      C1768   1.464       .  S
C1048      C1752   1.471       .  S
C1049      C1819   1.463       .  S
C1050      C3400   1.461       .  S
O1051     Ni1059   1.912       .  S
O1051      C1061   1.280       .  A
O1052     Ni1059   1.923       .  S
O1052      C1062   1.283       .  A
O1053     Ni1059   1.907       .  S
O1053      C1063   1.278       .  A
O1054     Ni1059   1.901       .  S
O1054      C1064   1.277       .  A
O1055     Ni1060   1.930       .  S
O1055      C1064   1.283       .  A
O1056     Ni1060   1.919       .  S
O1056      C1063   1.282       .  A
O1057     Ni1060   1.908       .  S
O1057      C1062   1.278       .  A
O1058     Ni1060   1.910       .  S
O1058      C1061   1.279       .  A
Ni1059    Ni1060   2.393       .  S
C1061      C1736   1.457       .  S
C1062      C1944   1.466       .  S
C1063      C3736   1.462       .  S
C1064      C1771   1.462       .  S
O1065     Ni1073   1.927       .  S
O1065      C1075   1.284       .  A
O1066     Ni1073   1.934       .  S
O1066      C1076   1.284       .  A
O1067     Ni1073   1.895       .  S
O1067      C1077   1.277       .  A
O1068     Ni1073   1.903       .  S
O1068      C1078   1.278       .  A
O1069     Ni1074   1.917       .  S
O1069      C1078   1.281       .  A
O1070     Ni1074   1.924       .  S
O1070      C1077   1.281       .  A
O1071     Ni1074   1.905       .  S
O1071      C1076   1.278       .  A
O1072     Ni1074   1.914       .  S
O1072      C1075   1.279       .  A
Ni1073    Ni1074   2.393       .  S
C1075      C1720   1.469       .  S
C1076      C2235   1.470       .  S
C1077      C1739   1.457       .  S
C1078      C4360   1.459       .  S
O1079     Ni1087   1.919       .  S
O1079      C1089   1.282       .  A
O1080     Ni1087   1.929       .  S
O1080      C1090   1.283       .  A
O1081     Ni1087   1.905       .  S
O1081      C1091   1.278       .  A
O1082     Ni1087   1.905       .  S
O1082      C1092   1.277       .  A
O1083     Ni1088   1.936       .  S
O1083      C1092   1.285       .  A
O1084     Ni1088   1.926       .  S
O1084      C1091   1.283       .  A
O1085     Ni1088   1.912       .  S
O1085      C1090   1.280       .  A
O1086     Ni1088   1.913       .  S
O1086      C1089   1.279       .  A
Ni1087    Ni1088   2.391       .  S
C1089      C1787   1.464       .  S
C1090      C1704   1.473       .  S
C1091      C2728   1.465       .  S
C1092      C1723   1.469       .  S
O1093     Ni1101   1.928       .  S
O1093      C1103   1.283       .  A
O1094     Ni1101   1.932       .  S
O1094      C1104   1.284       .  A
O1095     Ni1101   1.902       .  S
O1095      C1105   1.277       .  A
O1096     Ni1101   1.897       .  S
O1096      C1106   1.277       .  A
O1097     Ni1102   1.937       .  S
O1097      C1106   1.284       .  A
O1098     Ni1102   1.923       .  S
O1098      C1105   1.283       .  A
O1099     Ni1102   1.911       .  S
O1099      C1104   1.280       .  A
O1100     Ni1102   1.916       .  S
O1100      C1103   1.279       .  A
Ni1101    Ni1102   2.391       .  S
C1103      C1691   1.468       .  S
C1104      C1707   1.474       .  S
C1105      C3048   1.461       .  S
C1106      C1675   1.469       .  S
O1107     Ni1115   1.919       .  S
O1107      C1117   1.281       .  A
O1108     Ni1115   1.923       .  S
O1108      C1118   1.282       .  A
O1109     Ni1115   1.900       .  S
O1109      C1119   1.277       .  A
O1110     Ni1115   1.910       .  S
O1110      C1120   1.278       .  A
O1111     Ni1116   1.935       .  S
O1111      C1120   1.285       .  A
O1112     Ni1116   1.946       .  S
O1112      C1119   1.286       .  A
O1113     Ni1116   1.918       .  S
O1113      C1118   1.280       .  A
O1114     Ni1116   1.919       .  S
O1114      C1117   1.280       .  A
Ni1115    Ni1116   2.390       .  S
C1117      C1672   1.466       .  S
C1118      C2072   1.472       .  S
C1119      C1656   1.475       .  S
C1120      C3688   1.474       .  S
O1121     Ni1129   1.918       .  S
O1121      C1131   1.281       .  A
O1122     Ni1129   1.927       .  S
O1122      C1132   1.283       .  A
O1123     Ni1129   1.909       .  S
O1123      C1133   1.278       .  A
O1124     Ni1129   1.900       .  S
O1124      C1134   1.276       .  A
O1125     Ni1130   1.939       .  S
O1125      C1134   1.285       .  A
O1126     Ni1130   1.932       .  S
O1126      C1133   1.284       .  A
O1127     Ni1130   1.906       .  S
O1127      C1132   1.278       .  A
O1128     Ni1130   1.907       .  S
O1128      C1131   1.278       .  A
Ni1129    Ni1130   2.392       .  S
C1131      C1640   1.459       .  S
C1132      C1995   1.468       .  S
C1133      C2648   1.471       .  S
C1134      C1624   1.466       .  S
O1135     Ni1143   1.930       .  S
O1135      C1145   1.284       .  A
O1136     Ni1143   1.939       .  S
O1136      C1146   1.285       .  A
O1137     Ni1143   1.909       .  S
O1137      C1147   1.278       .  A
O1138     Ni1143   1.912       .  S
O1138      C1148   1.279       .  A
O1139     Ni1144   1.924       .  S
O1139      C1148   1.283       .  A
O1140     Ni1144   1.932       .  S
O1140      C1147   1.284       .  A
O1141     Ni1144   1.910       .  S
O1141      C1146   1.279       .  A
O1142     Ni1144   1.913       .  S
O1142      C1145   1.279       .  A
Ni1143    Ni1144   2.390       .  S
C1145      C1627   1.471       .  S
C1146      C1611   1.478       .  S
C1147      C1688   1.471       .  S
C1148      C3256   1.468       .  S
O1149     Ni1157   1.927       .  S
O1149      C1159   1.283       .  A
O1150     Ni1157   1.926       .  S
O1150      C1160   1.283       .  A
O1151     Ni1157   1.911       .  S
O1151      C1161   1.280       .  A
O1152     Ni1157   1.908       .  S
O1152      C1162   1.277       .  A
O1153     Ni1158   1.930       .  S
O1153      C1162   1.283       .  A
O1154     Ni1158   1.918       .  S
O1154      C1161   1.281       .  A
O1155     Ni1158   1.925       .  S
O1155      C1160   1.281       .  A
O1156     Ni1158   1.920       .  S
O1156      C1159   1.280       .  A
Ni1157    Ni1158   2.390       .  S
C1159      C1659   1.471       .  S
C1160      C1576   1.478       .  S
C1161      C4315   1.465       .  S
C1162      C1592   1.463       .  S
O1163     Ni1171   1.930       .  S
O1163      C1173   1.283       .  A
O1164     Ni1171   1.934       .  S
O1164      C1174   1.284       .  A
O1165     Ni1171   1.900       .  S
O1165      C1175   1.277       .  A
O1166     Ni1171   1.898       .  S
O1166      C1176   1.276       .  A
O1167     Ni1172   1.931       .  S
O1167      C1176   1.284       .  A
O1168     Ni1172   1.927       .  S
O1168      C1175   1.282       .  A
O1169     Ni1172   1.906       .  S
O1169      C1174   1.279       .  A
O1170     Ni1172   1.910       .  S
O1170      C1173   1.279       .  A
Ni1171    Ni1172   2.390       .  S
C1173      C1595   1.471       .  S
C1174      C1755   1.473       .  S
C1175      C1643   1.462       .  S
C1176      C3947   1.465       .  S
O1177     Ni1185   1.933       .  S
O1177      C1187   1.284       .  A
O1178     Ni1185   1.939       .  S
O1178      C1188   1.285       .  A
O1179     Ni1185   1.903       .  S
O1179      C1189   1.277       .  A
O1180     Ni1185   1.909       .  S
O1180      C1190   1.279       .  A
O1181     Ni1186   1.934       .  S
O1181      C1190   1.284       .  A
O1182     Ni1186   1.934       .  S
O1182      C1189   1.285       .  A
O1183     Ni1186   1.903       .  S
O1183      C1188   1.277       .  A
O1184     Ni1186   1.909       .  S
O1184      C1187   1.279       .  A
Ni1185    Ni1186   2.390       .  S
C1187      C1560   1.473       .  S
C1188      C1835   1.472       .  S
C1189      C3627   1.468       .  S
C1190      C1547   1.473       .  S
O1191     Ni1199   1.929       .  S
O1191      C1201   1.283       .  A
O1192     Ni1199   1.931       .  S
O1192      C1202   1.283       .  A
O1193     Ni1199   1.906       .  S
O1193      C1203   1.277       .  A
O1194     Ni1199   1.911       .  S
O1194      C1204   1.280       .  A
O1195     Ni1200   1.928       .  S
O1195      C1204   1.282       .  A
O1196     Ni1200   1.934       .  S
O1196      C1203   1.284       .  A
O1197     Ni1200   1.916       .  S
O1197      C1202   1.281       .  A
O1198     Ni1200   1.910       .  S
O1198      C1201   1.278       .  A
Ni1199    Ni1200   2.389       .  S
C1201      C1528   1.467       .  S
C1202      C1608   1.477       .  S
C1203      C1563   1.466       .  S
C1204      C3451   1.471       .  S
O1205     Ni1213   1.928       .  S
O1205      C1215   1.283       .  A
O1206     Ni1213   1.930       .  S
O1206      C1216   1.283       .  A
O1207     Ni1213   1.911       .  S
O1207      C1217   1.278       .  A
O1208     Ni1213   1.918       .  S
O1208      C1218   1.281       .  A
O1209     Ni1214   1.923       .  S
O1209      C1218   1.282       .  A
O1210     Ni1214   1.929       .  S
O1210      C1217   1.283       .  A
O1211     Ni1214   1.924       .  S
O1211      C1216   1.282       .  A
O1212     Ni1214   1.918       .  S
O1212      C1215   1.281       .  A
Ni1213    Ni1214   2.389       .  S
C1215      C1544   1.473       .  S
C1216      C1496   1.480       .  S
C1217      C1512   1.465       .  S
C1218      C2987   1.472       .  S
O1219     Ni1227   1.930       .  S
O1219      C1229   1.283       .  A
O1220     Ni1227   1.940       .  S
O1220      C1230   1.286       .  A
O1221     Ni1227   1.898       .  S
O1221      C1231   1.277       .  A
O1222     Ni1227   1.903       .  S
O1222      C1232   1.277       .  A
O1223     Ni1228   1.935       .  S
O1223      C1232   1.284       .  A
O1224     Ni1228   1.934       .  S
O1224      C1231   1.284       .  A
O1225     Ni1228   1.911       .  S
O1225      C1230   1.279       .  A
O1226     Ni1228   1.912       .  S
O1226      C1229   1.279       .  A
Ni1227    Ni1228   2.389       .  S
C1229      C1515   1.471       .  S
C1230      C1579   1.478       .  S
C1231      C2875   1.468       .  S
C1232      C1480   1.467       .  S
O1233     Ni1241   1.928       .  S
O1233      C1243   1.284       .  A
O1234     Ni1241   1.926       .  S
O1234      C1244   1.283       .  A
O1235     Ni1241   1.912       .  S
O1235      C1245   1.279       .  A
O1236     Ni1241   1.917       .  S
O1236      C1246   1.279       .  A
O1237     Ni1242   1.914       .  S
O1237      C1246   1.282       .  A
O1238     Ni1242   1.924       .  S
O1238      C1245   1.281       .  A
O1239     Ni1242   1.916       .  S
O1239      C1244   1.280       .  A
O1240     Ni1242   1.911       .  S
O1240      C1243   1.279       .  A
Ni1241    Ni1242   2.391       .  S
C1243      C1483   1.470       .  S
C1244      C1899   1.473       .  S
C1245      C1467   1.463       .  S
C1246      C2616   1.466       .  S
O1247     Ni1255   1.929       .  S
O1247      C1257   1.283       .  A
O1248     Ni1255   1.933       .  S
O1248      C1258   1.284       .  A
O1249     Ni1255   1.897       .  S
O1249      C1259   1.277       .  A
O1250     Ni1255   1.903       .  S
O1250      C1260   1.278       .  A
O1251     Ni1256   1.931       .  S
O1251      C1260   1.283       .  A
O1252     Ni1256   1.933       .  S
O1252      C1259   1.284       .  A
O1253     Ni1256   1.907       .  S
O1253      C1258   1.279       .  A
O1254     Ni1256   1.908       .  S
O1254      C1257   1.279       .  A
Ni1255    Ni1256   2.390       .  S
C1257      C1464   1.468       .  S
C1258      C1448   1.473       .  S
C1259      C3995   1.467       .  S
C1260      C1531   1.469       .  S
O1261     Ni1269   1.922       .  S
O1261      C1271   1.282       .  A
O1262     Ni1269   1.929       .  S
O1262      C1272   1.283       .  A
O1263     Ni1269   1.903       .  S
O1263      C1273   1.278       .  A
O1264     Ni1269   1.911       .  S
O1264      C1274   1.279       .  A
O1265     Ni1270   1.928       .  S
O1265      C1274   1.284       .  A
O1266     Ni1270   1.939       .  S
O1266      C1273   1.284       .  A
O1267     Ni1270   1.913       .  S
O1267      C1272   1.280       .  A
O1268     Ni1270   1.915       .  S
O1268      C1271   1.279       .  A
Ni1269    Ni1270   2.391       .  S
C1271      C1432   1.466       .  S
C1272      C2363   1.473       .  S
C1273      C1416   1.471       .  S
C1274      C2840   1.470       .  S
O1275     Ni1283   1.924       .  S
O1275      C1285   1.283       .  A
O1276     Ni1283   1.931       .  S
O1276      C1286   1.283       .  A
O1277     Ni1283   1.899       .  S
O1277      C1287   1.277       .  A
O1278     Ni1283   1.902       .  S
O1278      C1288   1.278       .  A
O1279     Ni1284   1.925       .  S
O1279      C1288   1.282       .  A
O1280     Ni1284   1.937       .  S
O1280      C1287   1.285       .  A
O1281     Ni1284   1.922       .  S
O1281      C1286   1.282       .  A
O1282     Ni1284   1.922       .  S
O1282      C1285   1.280       .  A
Ni1283    Ni1284   2.390       .  S
C1285      C1400   1.473       .  S
C1286      C1499   1.480       .  S
C1287      C1384   1.468       .  S
C1288      C3304   1.465       .  S
O1289     Ni1297   1.927       .  S
O1289      C1299   1.283       .  A
O1290     Ni1297   1.935       .  S
O1290      C1300   1.285       .  A
O1291     Ni1297   1.911       .  S
O1291      C1301   1.279       .  A
O1292     Ni1297   1.904       .  S
O1292      C1302   1.278       .  A
O1293     Ni1298   1.934       .  S
O1293      C1302   1.284       .  A
O1294     Ni1298   1.924       .  S
O1294      C1301   1.282       .  A
O1295     Ni1298   1.909       .  S
O1295      C1300   1.278       .  A
O1296     Ni1298   1.911       .  S
O1296      C1299   1.278       .  A
Ni1297    Ni1298   2.391       .  S
C1299      C1387   1.465       .  S
C1300      C2107   1.473       .  S
C1301      C2584   1.469       .  S
C1302      C1435   1.468       .  S
O1303     Ni1311   1.926       .  S
O1303      C1313   1.283       .  A
O1304     Ni1311   1.924       .  S
O1304      C1314   1.282       .  A
O1305     Ni1311   1.909       .  S
O1305      C1315   1.278       .  A
O1306     Ni1311   1.904       .  S
O1306      C1316   1.277       .  A
O1307     Ni1312   1.928       .  S
O1307      C1316   1.282       .  A
O1308     Ni1312   1.919       .  S
O1308      C1315   1.282       .  A
O1309     Ni1312   1.918       .  S
O1309      C1314   1.281       .  A
O1310     Ni1312   1.915       .  S
O1310      C1313   1.280       .  A
Ni1311    Ni1312   2.392       .  S
C1313      C1419   1.471       .  S
C1314      C1451   1.471       .  S
C1315      C4171   1.464       .  S
C1316      C1368   1.460       .  S
O1317     Ni1325   1.919       .  S
O1317      C1327   1.281       .  A
O1318     Ni1325   1.929       .  S
O1318      C1328   1.283       .  A
O1319     Ni1325   1.913       .  S
O1319      C1329   1.279       .  A
O1320     Ni1325   1.908       .  S
O1320      C1330   1.278       .  A
O1321     Ni1326   1.937       .  S
O1321      C1330   1.284       .  A
O1322     Ni1326   1.926       .  S
O1322      C1329   1.283       .  A
O1323     Ni1326   1.919       .  S
O1323      C1328   1.281       .  A
O1324     Ni1326   1.920       .  S
O1324      C1327   1.280       .  A
Ni1325    Ni1326   2.390       .  S
C1327      C1352   1.466       .  S
C1328      C2328   1.477       .  S
C1329      C3496   1.470       .  S
C1330      C1403   1.470       .  S
O1331     Ni1339   1.930       .  S
O1331      C1341   1.283       .  A
O1332     Ni1339   1.935       .  S
O1332      C1342   1.284       .  A
O1333     Ni1339   1.904       .  S
O1333      C1343   1.277       .  A
O1334     Ni1339   1.899       .  S
O1334      C1344   1.276       .  A
O1335     Ni1340   1.930       .  S
O1335      C1344   1.284       .  A
O1336     Ni1340   1.931       .  S
O1336      C1343   1.284       .  A
O1337     Ni1340   1.900       .  S
O1337      C1342   1.277       .  A
O1338     Ni1340   1.904       .  S
O1338      C1341   1.278       .  A
Ni1339    Ni1340   2.391       .  S
C1341      C1371   1.467       .  S
C1342      C2008   1.470       .  S
C1343      C1355   1.467       .  S
C1344      C3643   1.464       .  S
C1345      C1350   1.381       .  A
C1345      C1346   1.406       .  A
C1345      O1351   1.320       .  A
C1346      C1347   1.405       .  A
C1346      H1357   1.082       .  S
C1347      C1356   1.367       .  A
C1347      C1348   1.380       .  A
C1348      C1349   1.401       .  A
C1348      O1354   1.315       .  A
C1349      C1350   1.400       .  A
C1349      H1358   1.082       .  S
C1350      C1353   1.360       .  A
O1351      C1352   1.331       .  A
C1352      C1353   1.389       .  A
C1353      H1359   1.083       .  S
O1354      C1355   1.330       .  A
C1355      C1356   1.392       .  A
C1356      H1360   1.082       .  S
C1361      C1366   1.381       .  A
C1361      C1362   1.400       .  A
C1361      O1367   1.317       .  A
C1362      C1363   1.400       .  A
C1362      H1373   1.082       .  S
C1363      C1372   1.356       .  A
C1363      C1364   1.381       .  A
C1364      C1365   1.405       .  A
C1364      O1370   1.322       .  A
C1365      C1366   1.405       .  A
C1365      H1374   1.082       .  S
C1366      C1369   1.362       .  A
O1367      C1368   1.328       .  A
C1368      C1369   1.390       .  A
C1369      H1375   1.083       .  S
O1370      C1371   1.331       .  A
C1371      C1372   1.389       .  A
C1372      H1376   1.083       .  S
C1377      C1382   1.380       .  A
C1377      C1378   1.401       .  A
C1377      O1383   1.313       .  A
C1378      C1379   1.399       .  A
C1378      H1389   1.082       .  S
C1379      C1388   1.362       .  A
C1379      C1380   1.380       .  A
C1380      C1381   1.407       .  A
C1380      O1386   1.319       .  A
C1381      C1382   1.405       .  A
C1381      H1390   1.082       .  S
C1382      C1385   1.370       .  A
O1383      C1384   1.329       .  A
C1384      C1385   1.392       .  A
C1385      H1391   1.082       .  S
O1386      C1387   1.332       .  A
C1387      C1388   1.388       .  A
C1388      H1392   1.083       .  S
C1393      C1398   1.380       .  A
C1393      C1394   1.410       .  A
C1393      O1399   1.323       .  A
C1394      C1395   1.408       .  A
C1394      H1405   1.082       .  S
C1395      C1404   1.372       .  A
C1395      C1396   1.380       .  A
C1396      C1397   1.401       .  A
C1396      O1402   1.315       .  A
C1397      C1398   1.399       .  A
C1397      H1406   1.082       .  S
C1398      C1401   1.360       .  A
O1399      C1400   1.334       .  A
C1400      C1401   1.389       .  A
C1401      H1407   1.083       .  S
O1402      C1403   1.329       .  A
C1403      C1404   1.394       .  A
C1404      H1408   1.082       .  S
C1409      C1414   1.381       .  A
C1409      C1410   1.408       .  A
C1409      O1415   1.326       .  A
C1410      C1411   1.409       .  A
C1410      H1421   1.082       .  S
C1411      C1420   1.365       .  A
C1411      C1412   1.381       .  A
C1412      C1413   1.399       .  A
C1412      O1418   1.318       .  A
C1413      C1414   1.400       .  A
C1413      H1422   1.082       .  S
C1414      C1417   1.354       .  A
O1415      C1416   1.333       .  A
C1416      C1417   1.389       .  A
C1417      H1423   1.083       .  S
O1418      C1419   1.329       .  A
C1419      C1420   1.394       .  A
C1420      H1424   1.082       .  S
C1425      C1430   1.380       .  A
C1425      C1426   1.407       .  A
C1425      O1431   1.321       .  A
C1426      C1427   1.406       .  A
C1426      H1437   1.082       .  S
C1427      C1436   1.369       .  A
C1427      C1428   1.380       .  A
C1428      C1429   1.401       .  A
C1428      O1434   1.314       .  A
C1429      C1430   1.399       .  A
C1429      H1438   1.082       .  S
C1430      C1433   1.360       .  A
O1431      C1432   1.332       .  A
C1432      C1433   1.388       .  A
C1433      H1439   1.083       .  S
O1434      C1435   1.329       .  A
C1435      C1436   1.393       .  A
C1436      H1440   1.082       .  S
C1441      C1446   1.381       .  A
C1441      C1442   1.405       .  A
C1441      O1447   1.322       .  A
C1442      C1443   1.405       .  A
C1442      H1453   1.082       .  S
C1443      C1452   1.362       .  A
C1443      C1444   1.381       .  A
C1444      C1445   1.402       .  A
C1444      O1450   1.320       .  A
C1445      C1446   1.402       .  A
C1445      H1454   1.082       .  S
C1446      C1449   1.359       .  A
O1447      C1448   1.331       .  A
C1448      C1449   1.392       .  A
C1449      H1455   1.083       .  S
O1450      C1451   1.330       .  A
C1451      C1452   1.392       .  A
C1452      H1456   1.083       .  S
C1457      C1462   1.381       .  A
C1457      C1458   1.405       .  A
C1457      O1463   1.322       .  A
C1458      C1459   1.405       .  A
C1458      H1469   1.082       .  S
C1459      C1468   1.363       .  A
C1459      C1460   1.381       .  A
C1460      C1461   1.401       .  A
C1460      O1466   1.318       .  A
C1461      C1462   1.401       .  A
C1461      H1470   1.082       .  S
C1462      C1465   1.357       .  A
O1463      C1464   1.332       .  A
C1464      C1465   1.389       .  A
C1465      H1471   1.083       .  S
O1466      C1467   1.329       .  A
C1467      C1468   1.391       .  A
C1468      H1472   1.083       .  S
C1473      C1478   1.380       .  A
C1473      C1474   1.403       .  A
C1473      O1479   1.315       .  A
C1474      C1475   1.401       .  A
C1474      H1485   1.082       .  S
C1475      C1484   1.364       .  A
C1475      C1476   1.380       .  A
C1476      C1477   1.406       .  A
C1476      O1482   1.318       .  A
C1477      C1478   1.404       .  A
C1477      H1486   1.082       .  S
C1478      C1481   1.368       .  A
O1479      C1480   1.330       .  A
C1480      C1481   1.391       .  A
C1481      H1487   1.082       .  S
O1482      C1483   1.332       .  A
C1483      C1484   1.391       .  A
C1484      H1488   1.082       .  S
C1489      C1494   1.380       .  A
C1489      C1490   1.406       .  A
C1489      O1495   1.323       .  A
C1490      C1491   1.406       .  A
C1490      H1501   1.082       .  S
C1491      C1500   1.364   1_545  A
C1491      C1492   1.380   1_545  A
C1492      C1493   1.407   1_565  A
C1492      O1498   1.324       .  A
C1493      C1494   1.407       .  A
C1493      H1502   1.082       .  S
C1494      C1497   1.365       .  A
O1495      C1496   1.333       .  A
C1496      C1497   1.394       .  A
C1497      H1503   1.082       .  S
O1498      C1499   1.333       .  A
C1499      C1500   1.393       .  A
C1500      H1504   1.082       .  S
C1505      C1510   1.381       .  A
C1505      C1506   1.404       .  A
C1505      O1511   1.321       .  A
C1506      C1507   1.404       .  A
C1506      H1517   1.082       .  S
C1507      C1516   1.361       .  A
C1507      C1508   1.381       .  A
C1508      C1509   1.403       .  A
C1508      O1514   1.321       .  A
C1509      C1510   1.403       .  A
C1509      H1518   1.082       .  S
C1510      C1513   1.360       .  A
O1511      C1512   1.331       .  A
C1512      C1513   1.390       .  A
C1513      H1519   1.083       .  S
O1514      C1515   1.330       .  A
C1515      C1516   1.392       .  A
C1516      H1520   1.083       .  S
C1521      C1526   1.381       .  A
C1521      C1522   1.400       .  A
C1521      O1527   1.318       .  A
C1522      C1523   1.400       .  A
C1522      H1533   1.082       .  S
C1523      C1532   1.355       .  A
C1523      C1524   1.381       .  A
C1524      C1525   1.405       .  A
C1524      O1530   1.323       .  A
C1525      C1526   1.406       .  A
C1525      H1534   1.082       .  S
C1526      C1529   1.362       .  A
O1527      C1528   1.329       .  A
C1528      C1529   1.392       .  A
C1529      H1535   1.082       .  S
O1530      C1531   1.332       .  A
C1531      C1532   1.390       .  A
C1532      H1536   1.083       .  S
C1537      C1542   1.381       .  A
C1537      C1538   1.403       .  A
C1537      O1543   1.321       .  A
C1538      C1539   1.404       .  A
C1538      H1549   1.082       .  S
C1539      C1548   1.360       .  A
C1539      C1540   1.381       .  A
C1540      C1541   1.405       .  A
C1540      O1546   1.323       .  A
C1541      C1542   1.406       .  A
C1541      H1550   1.082       .  S
C1542      C1545   1.363       .  A
O1543      C1544   1.331       .  A
C1544      C1545   1.392       .  A
C1545      H1551   1.082       .  S
O1546      C1547   1.332       .  A
C1547      C1548   1.392       .  A
C1548      H1552   1.083       .  S
C1553      C1558   1.380       .  A
C1553      C1554   1.405       .  A
C1553      O1559   1.322       .  A
C1554      C1555   1.405       .  A
C1554      H1565   1.082       .  S
C1555      C1564   1.362       .  A
C1555      C1556   1.381       .  A
C1556      C1557   1.403       .  A
C1556      O1562   1.321       .  A
C1557      C1558   1.403       .  A
C1557      H1566   1.082       .  S
C1558      C1561   1.360       .  A
O1559      C1560   1.332       .  A
C1560      C1561   1.392       .  A
C1561      H1567   1.083       .  S
O1562      C1563   1.331       .  A
C1563      C1564   1.391       .  A
C1564      H1568   1.083       .  S
C1569      C1574   1.379       .  A
C1569      C1570   1.409   1_455  A
C1569      O1575   1.323       .  A
C1570      C1571   1.408       .  A
C1570      H1581   1.082       .  S
C1571      C1580   1.371       .  A
C1571      C1572   1.380       .  A
C1572      C1573   1.404   1_655  A
C1572      O1578   1.318       .  A
C1573      C1574   1.402       .  A
C1573      H1582   1.082       .  S
C1574      C1577   1.363       .  A
O1575      C1576   1.334       .  A
C1576      C1577   1.391       .  A
C1577      H1583   1.082       .  S
O1578      C1579   1.331       .  A
C1579      C1580   1.394       .  A
C1580      H1584   1.082       .  S
C1585      C1590   1.381       .  A
C1585      C1586   1.403       .  A
C1585      O1591   1.321       .  A
C1586      C1587   1.403       .  A
C1586      H1597   1.082       .  S
C1587      C1596   1.360       .  A
C1587      C1588   1.381       .  A
C1588      C1589   1.403       .  A
C1588      O1594   1.321       .  A
C1589      C1590   1.404       .  A
C1589      H1598   1.082       .  S
C1590      C1593   1.361       .  A
O1591      C1592   1.330       .  A
C1592      C1593   1.389       .  A
C1593      H1599   1.083       .  S
O1594      C1595   1.331       .  A
C1595      C1596   1.392       .  A
C1596      H1600   1.083       .  S
C1601      C1606   1.380       .  A
C1601      C1602   1.405       .  A
C1601      O1607   1.324       .  A
C1602      C1603   1.406       .  A
C1602      H1613   1.082       .  S
C1603      C1612   1.362       .  A
C1603      C1604   1.380       .  A
C1604      C1605   1.404       .  A
C1604      O1610   1.323       .  A
C1605      C1606   1.405       .  A
C1605      H1614   1.082       .  S
C1606      C1609   1.361       .  A
O1607      C1608   1.333       .  A
C1608      C1609   1.392       .  A
C1609      H1615   1.082       .  S
O1610      C1611   1.332       .  A
C1611      C1612   1.394       .  A
C1612      H1616   1.083       .  S
C1617      C1622   1.380       .  A
C1617      C1618   1.403       .  A
C1617      O1623   1.314       .  A
C1618      C1619   1.401       .  A
C1618      H1629   1.082       .  S
C1619      C1628   1.365       .  A
C1619      C1620   1.380       .  A
C1620      C1621   1.407       .  A
C1620      O1626   1.319       .  A
C1621      C1622   1.405       .  A
C1621      H1630   1.082       .  S
C1622      C1625   1.370       .  A
O1623      C1624   1.330       .  A
C1624      C1625   1.391       .  A
C1625      H1631   1.082       .  S
O1626      C1627   1.332       .  A
C1627      C1628   1.390       .  A
C1628      H1632   1.082       .  S
C1633      C1638   1.381       .  A
C1633      C1634   1.398       .  A
C1633      O1639   1.316       .  A
C1634      C1635   1.398       .  A
C1634      H1645   1.082       .  S
C1635      C1644   1.354       .  A
C1635      C1636   1.381       .  A
C1636      C1637   1.403       .  A
C1636      O1642   1.320       .  A
C1637      C1638   1.403       .  A
C1637      H1646   1.082       .  S
C1638      C1641   1.360       .  A
O1639      C1640   1.327       .  A
C1640      C1641   1.390       .  A
C1641      H1647   1.082       .  S
O1642      C1643   1.330       .  A
C1643      C1644   1.389       .  A
C1644      H1648   1.083       .  S
C1649      C1654   1.380       .  A
C1649      C1650   1.399       .  A
C1649      O1655   1.312       .  A
C1650      C1651   1.396       .  A
C1650      H1661   1.082       .  S
C1651      C1660   1.359       .  A
C1651      C1652   1.380       .  A
C1652      C1653   1.413       .  A
C1652      O1658   1.324       .  A
C1653      C1654   1.411       .  A
C1653      H1662   1.082       .  S
C1654      C1657   1.376       .  A
O1655      C1656   1.328       .  A
C1656      C1657   1.397       .  A
C1657      H1663   1.082       .  S
O1658      C1659   1.335       .  A
C1659      C1660   1.386       .  A
C1660      H1664   1.083       .  S
C1665      C1670   1.381       .  A
C1665      C1666   1.397       .  A
C1665      O1671   1.316       .  A
C1666      C1667   1.397       .  A
C1666      H1677   1.082       .  S
C1667      C1676   1.352       .  A
C1667      C1668   1.380       .  A
C1668      C1669   1.408       .  A
C1668      O1674   1.326       .  A
C1669      C1670   1.409       .  A
C1669      H1678   1.082       .  S
C1670      C1673   1.367       .  A
O1671      C1672   1.327       .  A
C1672      C1673   1.394       .  A
C1673      H1679   1.082       .  S
O1674      C1675   1.333       .  A
C1675      C1676   1.388       .  A
C1676      H1680   1.083       .  S
C1681      C1686   1.380       .  A
C1681      C1682   1.403       .  A
C1681      O1687   1.317       .  A
C1682      C1683   1.401       .  A
C1682      H1693   1.082       .  S
C1683      C1692   1.362       .  A
C1683      C1684   1.380       .  A
C1684      C1685   1.407       .  A
C1684      O1690   1.321       .  A
C1685      C1686   1.405       .  A
C1685      H1694   1.082       .  S
C1686      C1689   1.367       .  A
O1687      C1688   1.331       .  A
C1688      C1689   1.392       .  A
C1689      H1695   1.082       .  S
O1690      C1691   1.332       .  A
C1691      C1692   1.389       .  A
C1692      H1696   1.083       .  S
C1697      C1702   1.380   1_556  A
C1697      C1698   1.403   1_556  A
C1697      O1703   1.321       .  A
C1698      C1699   1.404       .  A
C1698      H1709   1.082   1_554  S
C1699      C1708   1.360       .  A
C1699      C1700   1.380       .  A
C1700      C1701   1.405       .  A
C1700      O1706   1.323       .  A
C1701      C1702   1.405       .  A
C1701      H1710   1.082       .  S
C1702      C1705   1.361   1_554  A
O1703      C1704   1.331       .  A
C1704      C1705   1.393       .  A
C1705      H1711   1.083       .  S
O1706      C1707   1.332       .  A
C1707      C1708   1.392       .  A
C1708      H1712   1.083       .  S
C1713      C1718   1.380       .  A
C1713      C1714   1.408       .  A
C1713      O1719   1.320       .  A
C1714      C1715   1.406       .  A
C1714      H1725   1.082       .  S
C1715      C1724   1.369       .  A
C1715      C1716   1.380       .  A
C1716      C1717   1.402       .  A
C1716      O1722   1.315       .  A
C1717      C1718   1.400       .  A
C1717      H1726   1.082       .  S
C1718      C1721   1.362       .  A
O1719      C1720   1.333       .  A
C1720      C1721   1.389       .  A
C1721      H1727   1.083       .  S
O1722      C1723   1.330       .  A
C1723      C1724   1.392       .  A
C1724      H1728   1.082       .  S
C1729      C1734   1.382       .  A
C1729      C1730   1.395       .  A
C1729      O1735   1.313       .  A
C1730      C1731   1.395       .  A
C1730      H1741   1.083       .  S
C1731      C1740   1.350       .  A
C1731      C1732   1.382       .  A
C1732      C1733   1.404       .  A
C1732      O1738   1.321       .  A
C1733      C1734   1.404       .  A
C1733      H1742   1.082       .  S
C1734      C1737   1.361       .  A
O1735      C1736   1.326       .  A
C1736      C1737   1.391       .  A
C1737      H1743   1.082       .  S
O1738      C1739   1.330       .  A
C1739      C1740   1.386       .  A
C1740      H1744   1.083       .  S
C1745      C1750   1.381       .  A
C1745      C1746   1.402       .  A
C1745      O1751   1.320       .  A
C1746      C1747   1.402       .  A
C1746      H1757   1.082       .  S
C1747      C1756   1.358       .  A
C1747      C1748   1.381       .  A
C1748      C1749   1.405       .  A
C1748      O1754   1.323       .  A
C1749      C1750   1.405       .  A
C1749      H1758   1.082       .  S
C1750      C1753   1.361       .  A
O1751      C1752   1.330       .  A
C1752      C1753   1.393       .  A
C1753      H1759   1.083       .  S
O1754      C1755   1.332       .  A
C1755      C1756   1.391       .  A
C1756      H1760   1.083       .  S
C1761      C1766   1.380       .  A
C1761      C1762   1.407       .  A
C1761      O1767   1.319       .  A
C1762      C1763   1.405       .  A
C1762      H1773   1.082       .  S
C1763      C1772   1.368       .  A
C1763      C1764   1.381       .  A
C1764      C1765   1.399       .  A
C1764      O1770   1.312       .  A
C1765      C1766   1.397       .  A
C1765      H1774   1.082       .  S
C1766      C1769   1.359       .  A
O1767      C1768   1.332       .  A
C1768      C1769   1.387       .  A
C1769      H1775   1.083       .  S
O1770      C1771   1.328       .  A
C1771      C1772   1.391       .  A
C1772      H1776   1.082       .  S
C1777      C1782   1.381       .  A
C1777      C1778   1.400       .  A
C1777      O1783   1.312       .  A
C1778      C1779   1.397       .  A
C1778      H1789   1.082       .  S
C1779      C1788   1.359       .  A
C1779      C1780   1.380       .  A
C1780      C1781   1.406       .  A
C1780      O1786   1.318       .  A
C1781      C1782   1.404       .  A
C1781      H1790   1.082       .  S
C1782      C1785   1.368       .  A
O1783      C1784   1.328       .  A
C1784      C1785   1.391       .  A
C1785      H1791   1.082       .  S
O1786      C1787   1.332       .  A
C1787      C1788   1.388       .  A
C1788      H1792   1.083       .  S
C1793      C1798   1.382       .  A
C1793      C1794   1.402       .  A
C1793      O1799   1.321       .  A
C1794      C1795   1.403       .  A
C1794      H1805   1.082       .  S
C1795      C1804   1.358       .  A
C1795      C1796   1.381       .  A
C1796      C1797   1.403       .  A
C1796      O1802   1.322       .  A
C1797      C1798   1.404       .  A
C1797      H1806   1.082       .  S
C1798      C1801   1.359       .  A
O1799      C1800   1.329       .  A
C1800      C1801   1.390       .  A
C1801      H1807   1.083       .  S
O1802      C1803   1.331       .  A
C1803      C1804   1.391       .  A
C1804      H1808   1.083       .  S
C1809      C1814   1.380       .  A
C1809      C1810   1.408       .  A
C1809      O1815   1.321       .  A
C1810      C1811   1.406       .  A
C1810      H1821   1.082       .  S
C1811      C1820   1.370       .  A
C1811      C1812   1.381       .  A
C1812      C1813   1.399       .  A
C1812      O1818   1.312       .  A
C1813      C1814   1.397       .  A
C1813      H1822   1.082       .  S
C1814      C1817   1.358       .  A
O1815      C1816   1.333       .  A
C1816      C1817   1.388       .  A
C1817      H1823   1.083       .  S
O1818      C1819   1.328       .  A
C1819      C1820   1.392       .  A
C1820      H1824   1.082       .  S
C1825      C1830   1.380   1_554  A
C1825      C1826   1.408       .  A
C1825      O1831   1.320   1_554  A
C1826      C1827   1.406       .  A
C1826      H1837   1.082       .  S
C1827      C1836   1.370       .  A
C1827      C1828   1.380       .  A
C1828      C1829   1.402       .  A
C1828      O1834   1.315       .  A
C1829      C1830   1.400   1_554  A
C1829      H1838   1.082       .  S
C1830      C1833   1.362       .  A
O1831      C1832   1.333       .  A
C1832      C1833   1.390       .  A
C1833      H1839   1.082       .  S
O1834      C1835   1.330       .  A
C1835      C1836   1.393       .  A
C1836      H1840   1.082       .  S
C1841      C1846   1.380       .  A
C1841      C1842   1.406       .  A
C1841      O1847   1.325       .  A
C1842      C1843   1.407   1_655  A
C1842      H1853   1.082       .  S
C1843      C1852   1.362       .  A
C1843      C1844   1.381       .  A
C1844      C1845   1.402       .  A
C1844      O1850   1.322       .  A
C1845      C1846   1.403   1_455  A
C1845      H1854   1.082       .  S
C1846      C1849   1.358       .  A
O1847      C1848   1.333       .  A
C1848      C1849   1.392       .  A
C1849      H1855   1.083       .  S
O1850      C1851   1.330       .  A
C1851      C1852   1.395       .  A
C1852      H1856   1.083       .  S
C1857      C1862   1.380       .  A
C1857      C1858   1.402       .  A
C1857      O1863   1.315       .  A
C1858      C1859   1.400       .  A
C1858      H1869   1.082       .  S
C1859      C1868   1.361       .  A
C1859      C1860   1.380       .  A
C1860      C1861   1.406       .  A
C1860      O1866   1.319       .  A
C1861      C1862   1.405       .  A
C1861      H1870   1.082       .  S
C1862      C1865   1.367       .  A
O1863      C1864   1.329       .  A
C1864      C1865   1.392       .  A
C1865      H1871   1.082       .  S
O1866      C1867   1.332       .  A
C1867      C1868   1.389       .  A
C1868      H1872   1.082       .  S
C1873      C1878   1.381       .  A
C1873      C1874   1.404       .  A
C1873      O1879   1.319       .  A
C1874      C1875   1.403       .  A
C1874      H1885   1.082       .  S
C1875      C1884   1.363       .  A
C1875      C1876   1.380       .  A
C1876      C1877   1.404       .  A
C1876      O1882   1.319       .  A
C1877      C1878   1.403       .  A
C1877      H1886   1.082       .  S
C1878      C1881   1.362       .  A
O1879      C1880   1.330       .  A
C1880      C1881   1.390       .  A
C1881      H1887   1.083       .  S
O1882      C1883   1.331       .  A
C1883      C1884   1.390       .  A
C1884      H1888   1.082       .  S
C1889      C1894   1.380       .  A
C1889      C1890   1.403       .  A
C1889      O1895   1.316       .  A
C1890      C1891   1.401       .  A
C1890      H1901   1.082       .  S
C1891      C1900   1.363       .  A
C1891      C1892   1.380       .  A
C1892      C1893   1.408       .  A
C1892      O1898   1.320       .  A
C1893      C1894   1.406       .  A
C1893      H1902   1.082       .  S
C1894      C1897   1.368       .  A
O1895      C1896   1.331       .  A
C1896      C1897   1.393       .  A
C1897      H1903   1.082       .  S
O1898      C1899   1.333       .  A
C1899      C1900   1.390       .  A
C1900      H1904   1.082       .  S
C1905      C1910   1.380       .  A
C1905      C1906   1.406       .  A
C1905      O1911   1.321       .  A
C1906      C1907   1.405       .  A
C1906      H1917   1.082       .  S
C1907      C1916   1.365       .  A
C1907      C1908   1.380       .  A
C1908      C1909   1.404       .  A
C1908      O1914   1.320       .  A
C1909      C1910   1.404       .  A
C1909      H1918   1.082       .  S
C1910      C1913   1.363       .  A
O1911      C1912   1.332       .  A
C1912      C1913   1.391       .  A
C1913      H1919   1.082       .  S
O1914      C1915   1.331       .  A
C1915      C1916   1.392       .  A
C1916      H1920   1.082       .  S
C1921      C1926   1.381       .  A
C1921      C1922   1.399       .  A
C1921      O1927   1.312       .  A
C1922      C1923   1.397       .  A
C1922      H1933   1.082       .  S
C1923      C1932   1.358       .  A
C1923      C1924   1.380       .  A
C1924      C1925   1.407       .  A
C1924      O1930   1.320       .  A
C1925      C1926   1.405       .  A
C1925      H1934   1.082       .  S
C1926      C1929   1.368       .  A
O1927      C1928   1.328       .  A
C1928      C1929   1.392       .  A
C1929      H1935   1.082       .  S
O1930      C1931   1.332       .  A
C1931      C1932   1.388       .  A
C1932      H1936   1.083       .  S
C1937      C1942   1.380       .  A
C1937      C1938   1.403       .  A
C1937      O1943   1.316       .  A
C1938      C1939   1.402       .  A
C1938      H1949   1.082       .  S
C1939      C1948   1.363       .  A
C1939      C1940   1.380       .  A
C1940      C1941   1.403       .  A
C1940      O1946   1.317       .  A
C1941      C1942   1.401       .  A
C1941      H1950   1.082       .  S
C1942      C1945   1.363       .  A
O1943      C1944   1.330       .  A
C1944      C1945   1.391       .  A
C1945      H1951   1.082       .  S
O1946      C1947   1.331       .  A
C1947      C1948   1.391       .  A
C1948      H1952   1.082       .  S
C1953      C1958   1.381       .  A
C1953      C1954   1.401       .  A
C1953      O1959   1.319       .  A
C1954      C1955   1.401       .  A
C1954      H1965   1.082       .  S
C1955      C1964   1.358       .  A
C1955      C1956   1.381       .  A
C1956      C1957   1.404       .  A
C1956      O1962   1.322       .  A
C1957      C1958   1.405       .  A
C1957      H1966   1.082       .  S
C1958      C1961   1.361       .  A
O1959      C1960   1.329       .  A
C1960      C1961   1.393       .  A
C1961      H1967   1.083       .  S
O1962      C1963   1.331       .  A
C1963      C1964   1.387       .  A
C1964      H1968   1.083       .  S
C1969      C1974   1.381       .  A
C1969      C1970   1.399       .  A
C1969      O1975   1.318       .  A
C1970      C1971   1.400       .  A
C1970      H1981   1.082       .  S
C1971      C1980   1.355       .  A
C1971      C1972   1.381       .  A
C1972      C1973   1.406       .  A
C1972      O1978   1.324       .  A
C1973      C1974   1.406       .  A
C1973      H1982   1.082       .  S
C1974      C1977   1.363       .  A
O1975      C1976   1.328       .  A
C1976      C1977   1.392       .  A
C1977      H1983   1.082       .  S
O1978      C1979   1.332       .  A
C1979      C1980   1.389       .  A
C1980      H1984   1.083       .  S
C1985      C1990   1.381       .  A
C1985      C1986   1.403       .  A
C1985      O1991   1.321   1_545  A
C1986      C1987   1.403       .  A
C1986      H1997   1.082       .  S
C1987      C1996   1.359       .  A
C1987      C1988   1.381       .  A
C1988      C1989   1.401       .  A
C1988      O1994   1.320       .  A
C1989      C1990   1.402       .  A
C1989      H1998   1.082       .  S
C1990      C1993   1.357   1_545  A
O1991      C1992   1.330       .  A
C1992      C1993   1.391       .  A
C1993      H1999   1.083   1_565  S
O1994      C1995   1.330       .  A
C1995      C1996   1.392       .  A
C1996      H2000   1.083       .  S
C2001      C2006   1.381       .  A
C2001      C2002   1.403       .  A
C2001      O2007   1.322       .  A
C2002      C2003   1.404       .  A
C2002      H2013   1.082       .  S
C2003      C2012   1.359       .  A
C2003      C2004   1.381       .  A
C2004      C2005   1.401       .  A
C2004      O2010   1.320       .  A
C2005      C2006   1.402       .  A
C2005      H2014   1.082       .  S
C2006      C2009   1.356       .  A
O2007      C2008   1.331       .  A
C2008      C2009   1.391       .  A
C2009      H2015   1.083       .  S
O2010      C2011   1.330       .  A
C2011      C2012   1.392       .  A
C2012      H2016   1.083       .  S
C2017      C2022   1.382       .  A
C2017      C2018   1.398       .  A
C2017      O2023   1.317       .  A
C2018      C2019   1.399       .  A
C2018      H2029   1.082       .  S
C2019      C2028   1.353       .  A
C2019      C2020   1.381       .  A
C2020      C2021   1.403       .  A
C2020      O2026   1.322       .  A
C2021      C2022   1.404       .  A
C2021      H2030   1.082       .  S
C2022      C2025   1.359       .  A
O2023      C2024   1.328       .  A
C2024      C2025   1.390       .  A
C2025      H2031   1.082       .  S
O2026      C2027   1.330       .  A
C2027      C2028   1.389       .  A
C2028      H2032   1.083       .  S
C2033      C2038   1.381       .  A
C2033      C2034   1.398       .  A
C2033      O2039   1.310       .  A
C2034      C2035   1.395       .  A
C2034      H2045   1.082       .  S
C2035      C2044   1.357       .  A
C2035      C2036   1.380       .  A
C2036      C2037   1.408       .  A
C2036      O2042   1.320       .  A
C2037      C2038   1.406       .  A
C2037      H2046   1.082       .  S
C2038      C2041   1.370       .  A
O2039      C2040   1.327       .  A
C2040      C2041   1.393       .  A
C2041      H2047   1.082       .  S
O2042      C2043   1.333       .  A
C2043      C2044   1.386       .  A
C2044      H2048   1.083       .  S
C2049      C2054   1.381       .  A
C2049      C2050   1.400       .  A
C2049      O2055   1.318       .  A
C2050      C2051   1.401       .  A
C2050      H2061   1.082       .  S
C2051      C2060   1.356       .  A
C2051      C2052   1.382       .  A
C2052      C2053   1.402       .  A
C2052      O2058   1.321       .  A
C2053      C2054   1.403       .  A
C2053      H2062   1.082       .  S
C2054      C2057   1.359       .  A
O2055      C2056   1.329       .  A
C2056      C2057   1.391       .  A
C2057      H2063   1.083       .  S
O2058      C2059   1.329       .  A
C2059      C2060   1.388       .  A
C2060      H2064   1.083       .  S
C2065      C2070   1.380       .  A
C2065      C2066   1.404       .  A
C2065      O2071   1.319       .  A
C2066      C2067   1.402       .  A
C2066      H2077   1.082       .  S
C2067      C2076   1.363       .  A
C2067      C2068   1.380       .  A
C2068      C2069   1.405       .  A
C2068      O2074   1.319       .  A
C2069      C2070   1.404       .  A
C2069      H2078   1.082       .  S
C2070      C2073   1.364       .  A
O2071      C2072   1.331       .  A
C2072      C2073   1.392       .  A
C2073      H2079   1.082       .  S
O2074      C2075   1.332       .  A
C2075      C2076   1.391       .  A
C2076      H2080   1.082       .  S
C2081      C2086   1.381       .  A
C2081      C2082   1.404       .  A
C2081      O2087   1.318       .  A
C2082      C2083   1.402       .  A
C2082      H2093   1.082       .  S
C2083      C2092   1.362       .  A
C2083      C2084   1.381       .  A
C2084      C2085   1.402       .  A
C2084      O2090   1.317       .  A
C2085      C2086   1.401       .  A
C2085      H2094   1.082       .  S
C2086      C2089   1.361       .  A
O2087      C2088   1.330       .  A
C2088      C2089   1.388       .  A
C2089      H2095   1.082       .  S
O2090      C2091   1.330       .  A
C2091      C2092   1.391       .  A
C2092      H2096   1.082       .  S
C2097      C2102   1.380       .  A
C2097      C2098   1.406       .  A
C2097      O2103   1.318       .  A
C2098      C2099   1.404   1_455  A
C2098      H2109   1.082   1_455  S
C2099      C2108   1.367       .  A
C2099      C2100   1.380       .  A
C2100      C2101   1.405   1_655  A
C2100      O2106   1.317       .  A
C2101      C2102   1.403       .  A
C2101      H2110   1.082       .  S
C2102      C2105   1.366       .  A
O2103      C2104   1.332       .  A
C2104      C2105   1.391       .  A
C2105      H2111   1.082       .  S
O2106      C2107   1.331       .  A
C2107      C2108   1.392       .  A
C2108      H2112   1.082       .  S
C2113      C2118   1.381       .  A
C2113      C2114   1.401       .  A
C2113      O2119   1.314       .  A
C2114      C2115   1.399       .  A
C2114      H2125   1.082       .  S
C2115      C2124   1.360       .  A
C2115      C2116   1.380       .  A
C2116      C2117   1.407       .  A
C2116      O2122   1.320       .  A
C2117      C2118   1.405       .  A
C2117      H2126   1.082       .  S
C2118      C2121   1.368       .  A
O2119      C2120   1.329       .  A
C2120      C2121   1.391       .  A
C2121      H2127   1.082       .  S
O2122      C2123   1.332       .  A
C2123      C2124   1.389       .  A
C2124      H2128   1.083       .  S
C2129      C2134   1.380       .  A
C2129      C2130   1.408       .  A
C2129      O2135   1.320       .  A
C2130      C2131   1.406       .  A
C2130      H2141   1.082       .  S
C2131      C2140   1.369       .  A
C2131      C2132   1.380       .  A
C2132      C2133   1.401       .  A
C2132      O2138   1.314       .  A
C2133      C2134   1.399       .  A
C2133      H2142   1.082       .  S
C2134      C2137   1.360       .  A
O2135      C2136   1.333       .  A
C2136      C2137   1.388       .  A
C2137      H2143   1.083       .  S
O2138      C2139   1.329       .  A
C2139      C2140   1.393       .  A
C2140      H2144   1.082       .  S
C2145      C2150   1.380   1_565  A
C2145      C2146   1.406   1_565  A
C2145      O2151   1.323       .  A
C2146      C2147   1.406       .  A
C2146      H2157   1.082   1_545  S
C2147      C2156   1.364       .  A
C2147      C2148   1.380       .  A
C2148      C2149   1.404       .  A
C2148      O2154   1.320       .  A
C2149      C2150   1.404       .  A
C2149      H2158   1.082       .  S
C2150      C2153   1.361   1_545  A
O2151      C2152   1.332       .  A
C2152      C2153   1.392       .  A
C2153      H2159   1.083       .  S
O2154      C2155   1.331       .  A
C2155      C2156   1.393       .  A
C2156      H2160   1.082       .  S
C2161      C2166   1.380       .  A
C2161      C2162   1.402       .  A
C2161      O2167   1.315       .  A
C2162      C2163   1.400       .  A
C2162      H2173   1.082       .  S
C2163      C2172   1.362       .  A
C2163      C2164   1.380       .  A
C2164      C2165   1.406       .  A
C2164      O2170   1.319       .  A
C2165      C2166   1.404       .  A
C2165      H2174   1.082       .  S
C2166      C2169   1.366       .  A
O2167      C2168   1.330       .  A
C2168      C2169   1.391       .  A
C2169      H2175   1.082       .  S
O2170      C2171   1.332       .  A
C2171      C2172   1.390       .  A
C2172      H2176   1.082       .  S
C2177      C2182   1.380   1_554  A
C2177      C2178   1.404       .  A
C2177      O2183   1.318   1_554  A
C2178      C2179   1.403       .  A
C2178      H2189   1.082       .  S
C2179      C2188   1.365       .  A
C2179      C2180   1.380       .  A
C2180      C2181   1.405       .  A
C2180      O2186   1.319       .  A
C2181      C2182   1.404   1_554  A
C2181      H2190   1.082       .  S
C2182      C2185   1.365       .  A
O2183      C2184   1.331       .  A
C2184      C2185   1.392       .  A
C2185      H2191   1.082       .  S
O2186      C2187   1.332       .  A
C2187      C2188   1.391       .  A
C2188      H2192   1.082       .  S
C2193      C2198   1.380       .  A
C2193      C2194   1.404       .  A
C2193      O2199   1.317       .  A
C2194      C2195   1.403       .  A
C2194      H2205   1.082       .  S
C2195      C2204   1.364       .  A
C2195      C2196   1.380       .  A
C2196      C2197   1.404       .  A
C2196      O2202   1.318       .  A
C2197      C2198   1.403       .  A
C2197      H2206   1.082       .  S
C2198      C2201   1.365       .  A
O2199      C2200   1.331       .  A
C2200      C2201   1.390       .  A
C2201      H2207   1.082       .  S
O2202      C2203   1.331       .  A
C2203      C2204   1.392       .  A
C2204      H2208   1.082       .  S
C2209      C2214   1.381       .  A
C2209      C2210   1.397       .  A
C2209      O2215   1.316       .  A
C2210      C2211   1.398       .  A
C2210      H2221   1.082       .  S
C2211      C2220   1.353       .  A
C2211      C2212   1.381       .  A
C2212      C2213   1.407       .  A
C2212      O2218   1.324       .  A
C2213      C2214   1.407       .  A
C2213      H2222   1.082       .  S
C2214      C2217   1.364       .  A
O2215      C2216   1.327       .  A
C2216      C2217   1.393       .  A
C2217      H2223   1.082       .  S
O2218      C2219   1.333       .  A
C2219      C2220   1.388       .  A
C2220      H2224   1.083       .  S
C2225      C2230   1.380       .  A
C2225      C2226   1.407       .  A
C2225      O2231   1.319       .  A
C2226      C2227   1.405       .  A
C2226      H2237   1.082       .  S
C2227      C2236   1.368       .  A
C2227      C2228   1.380       .  A
C2228      C2229   1.401       .  A
C2228      O2234   1.315       .  A
C2229      C2230   1.399       .  A
C2229      H2238   1.082       .  S
C2230      C2233   1.361       .  A
O2231      C2232   1.332       .  A
C2232      C2233   1.389       .  A
C2233      H2239   1.082       .  S
O2234      C2235   1.330       .  A
C2235      C2236   1.393       .  A
C2236      H2240   1.082       .  S
C2241      C2246   1.380       .  A
C2241      C2242   1.404       .  A
C2241      O2247   1.319       .  A
C2242      C2243   1.403       .  A
C2242      H2253   1.082       .  S
C2243      C2252   1.364       .  A
C2243      C2244   1.380       .  A
C2244      C2245   1.406       .  A
C2244      O2250   1.320       .  A
C2245      C2246   1.404       .  A
C2245      H2254   1.082       .  S
C2246      C2249   1.366       .  A
O2247      C2248   1.331       .  A
C2248      C2249   1.391       .  A
C2249      H2255   1.082       .  S
O2250      C2251   1.332       .  A
C2251      C2252   1.391       .  A
C2252      H2256   1.082       .  S
C2257      C2262   1.381       .  A
C2257      C2258   1.402       .  A
C2257      O2263   1.319       .  A
C2258      C2259   1.402       .  A
C2258      H2269   1.082       .  S
C2259      C2268   1.358       .  A
C2259      C2260   1.380       .  A
C2260      C2261   1.405       .  A
C2260      O2266   1.322       .  A
C2261      C2262   1.405       .  A
C2261      H2270   1.082       .  S
C2262      C2265   1.362       .  A
O2263      C2264   1.330       .  A
C2264      C2265   1.392       .  A
C2265      H2271   1.082       .  S
O2266      C2267   1.332       .  A
C2267      C2268   1.392       .  A
C2268      H2272   1.083       .  S
C2273      C2278   1.381       .  A
C2273      C2274   1.401       .  A
C2273      O2279   1.314       .  A
C2274      C2275   1.399       .  A
C2274      H2285   1.082       .  S
C2275      C2284   1.361       .  A
C2275      C2276   1.381       .  A
C2276      C2277   1.402       .  A
C2276      O2282   1.315       .  A
C2277      C2278   1.400       .  A
C2277      H2286   1.082       .  S
C2278      C2281   1.362       .  A
O2279      C2280   1.329       .  A
C2280      C2281   1.389       .  A
C2281      H2287   1.082       .  S
O2282      C2283   1.330       .  A
C2283      C2284   1.389       .  A
C2284      H2288   1.082       .  S
C2289      C2294   1.381       .  A
C2289      C2290   1.404       .  A
C2289      O2295   1.321       .  A
C2290      C2291   1.404       .  A
C2290      H2301   1.082       .  S
C2291      C2300   1.362       .  A
C2291      C2292   1.381       .  A
C2292      C2293   1.401       .  A
C2292      O2298   1.318       .  A
C2293      C2294   1.401       .  A
C2293      H2302   1.082       .  S
C2294      C2297   1.358       .  A
O2295      C2296   1.331       .  A
C2296      C2297   1.390       .  A
C2297      H2303   1.083       .  S
O2298      C2299   1.329       .  A
C2299      C2300   1.390       .  A
C2300      H2304   1.083       .  S
C2305      C2310   1.381       .  A
C2305      C2306   1.402       .  A
C2305      O2311   1.321   1_545  A
C2306      C2307   1.403       .  A
C2306      H2317   1.082       .  S
C2307      C2316   1.358       .  A
C2307      C2308   1.380       .  A
C2308      C2309   1.406       .  A
C2308      O2314   1.324       .  A
C2309      C2310   1.407       .  A
C2309      H2318   1.082       .  S
C2310      C2313   1.363       .  A
O2311      C2312   1.330       .  A
C2312      C2313   1.394   1_565  A
C2313      H2319   1.083       .  S
O2314      C2315   1.332       .  A
C2315      C2316   1.392       .  A
C2316      H2320   1.083       .  S
C2321      C2326   1.380       .  A
C2321      C2322   1.404       .  A
C2321      O2327   1.321       .  A
C2322      C2323   1.404       .  A
C2322      H2333   1.082       .  S
C2323      C2332   1.361       .  A
C2323      C2324   1.380       .  A
C2324      C2325   1.407       .  A
C2324      O2330   1.324       .  A
C2325      C2326   1.407       .  A
C2325      H2334   1.082       .  S
C2326      C2329   1.365       .  A
O2327      C2328   1.331       .  A
C2328      C2329   1.394       .  A
C2329      H2335   1.082       .  S
O2330      C2331   1.333       .  A
C2331      C2332   1.392       .  A
C2332      H2336   1.083       .  S
C2337      C2342   1.381       .  A
C2337      C2338   1.399       .  A
C2337      O2343   1.318       .  A
C2338      C2339   1.400       .  A
C2338      H2349   1.082       .  S
C2339      C2348   1.353       .  A
C2339      C2340   1.381       .  A
C2340      C2341   1.409       .  A
C2340      O2346   1.328       .  A
C2341      C2342   1.410       .  A
C2341      H2350   1.082       .  S
C2342      C2345   1.366       .  A
O2343      C2344   1.328       .  A
C2344      C2345   1.395       .  A
C2345      H2351   1.082       .  S
O2346      C2347   1.334       .  A
C2347      C2348   1.388       .  A
C2348      H2352   1.083       .  S
C2353      C2358   1.380       .  A
C2353      C2354   1.405       .  A
C2353      O2359   1.323       .  A
C2354      C2355   1.406   1_556  A
C2354      H2365   1.082       .  S
C2355      C2364   1.362       .  A
C2355      C2356   1.381       .  A
C2356      C2357   1.402       .  A
C2356      O2362   1.321       .  A
C2357      C2358   1.403   1_554  A
C2357      H2366   1.082       .  S
C2358      C2361   1.359       .  A
O2359      C2360   1.332       .  A
C2360      C2361   1.392       .  A
C2361      H2367   1.083       .  S
O2362      C2363   1.331       .  A
C2363      C2364   1.393       .  A
C2364      H2368   1.083       .  S
C2369      C2374   1.380       .  A
C2369      C2370   1.407       .  A
C2369      O2375   1.324       .  A
C2370      C2371   1.407       .  A
C2370      H2381   1.082       .  S
C2371      C2380   1.364       .  A
C2371      C2372   1.381       .  A
C2372      C2373   1.401       .  A
C2372      O2378   1.319       .  A
C2373      C2374   1.401       .  A
C2373      H2382   1.082       .  S
C2374      C2377   1.357       .  A
O2375      C2376   1.333       .  A
C2376      C2377   1.391       .  A
C2377      H2383   1.083       .  S
O2378      C2379   1.329       .  A
C2379      C2380   1.394       .  A
C2380      H2384   1.082       .  S
C2385      C2390   1.380       .  A
C2385      C2386   1.403       .  A
C2385      O2391   1.316       .  A
C2386      C2387   1.401       .  A
C2386      H2397   1.082       .  S
C2387      C2396   1.362       .  A
C2387      C2388   1.380       .  A
C2388      C2389   1.405       .  A
C2388      O2394   1.318       .  A
C2389      C2390   1.403       .  A
C2389      H2398   1.082       .  S
C2390      C2393   1.365       .  A
O2391      C2392   1.330       .  A
C2392      C2393   1.390       .  A
C2393      H2399   1.082       .  S
O2394      C2395   1.332       .  A
C2395      C2396   1.390       .  A
C2396      H2400   1.082       .  S
C2401      C2406   1.380       .  A
C2401      C2402   1.409       .  A
C2401      O2407   1.322       .  A
C2402      C2403   1.407       .  A
C2402      H2413   1.082       .  S
C2403      C2412   1.371       .  A
C2403      C2404   1.380       .  A
C2404      C2405   1.400       .  A
C2404      O2410   1.314       .  A
C2405      C2406   1.398       .  A
C2405      H2414   1.082       .  S
C2406      C2409   1.360       .  A
O2407      C2408   1.334       .  A
C2408      C2409   1.389       .  A
C2409      H2415   1.083       .  S
O2410      C2411   1.329       .  A
C2411      C2412   1.393       .  A
C2412      H2416   1.082       .  S
C2417      C2422   1.380       .  A
C2417      C2418   1.405   1_655  A
C2417      O2423   1.319       .  A
C2418      C2419   1.403       .  A
C2418      H2429   1.082       .  S
C2419      C2428   1.364       .  A
C2419      C2420   1.380       .  A
C2420      C2421   1.405   1_455  A
C2420      O2426   1.319       .  A
C2421      C2422   1.404       .  A
C2421      H2430   1.082       .  S
C2422      C2425   1.365       .  A
O2423      C2424   1.332       .  A
C2424      C2425   1.392       .  A
C2425      H2431   1.082       .  S
O2426      C2427   1.331       .  A
C2427      C2428   1.392       .  A
C2428      H2432   1.082       .  S
C2433      C2438   1.380       .  A
C2433      C2434   1.403       .  A
C2433      O2439   1.316       .  A
C2434      C2435   1.401       .  A
C2434      H2445   1.082       .  S
C2435      C2444   1.362       .  A
C2435      C2436   1.380       .  A
C2436      C2437   1.407       .  A
C2436      O2442   1.321       .  A
C2437      C2438   1.406       .  A
C2437      H2446   1.082       .  S
C2438      C2441   1.368       .  A
O2439      C2440   1.330       .  A
C2440      C2441   1.392       .  A
C2441      H2447   1.082       .  S
O2442      C2443   1.332       .  A
C2443      C2444   1.390       .  A
C2444      H2448   1.083       .  S
C2449      C2454   1.380       .  A
C2449      C2450   1.403       .  A
C2449      O2455   1.319       .  A
C2450      C2451   1.402       .  A
C2450      H2461   1.082       .  S
C2451      C2460   1.362       .  A
C2451      C2452   1.380       .  A
C2452      C2453   1.405       .  A
C2452      O2458   1.320       .  A
C2453      C2454   1.404       .  A
C2453      H2462   1.082       .  S
C2454      C2457   1.364       .  A
O2455      C2456   1.331       .  A
C2456      C2457   1.392       .  A
C2457      H2463   1.082       .  S
O2458      C2459   1.332       .  A
C2459      C2460   1.391       .  A
C2460      H2464   1.082       .  S
C2465      C2470   1.380       .  A
C2465      C2466   1.410       .  A
C2465      O2471   1.327       .  A
C2466      C2467   1.410       .  A
C2466      H2477   1.082       .  S
C2467      C2476   1.368       .  A
C2467      C2468   1.381       .  A
C2468      C2469   1.398       .  A
C2468      O2474   1.317       .  A
C2469      C2470   1.398       .  A
C2469      H2478   1.082       .  S
C2470      C2473   1.354       .  A
O2471      C2472   1.334       .  A
C2472      C2473   1.388       .  A
C2473      H2479   1.083       .  S
O2474      C2475   1.328       .  A
C2475      C2476   1.395       .  A
C2476      H2480   1.082       .  S
C2481      C2486   1.381       .  A
C2481      C2482   1.405       .  A
C2481      O2487   1.320       .  A
C2482      C2483   1.404       .  A
C2482      H2493   1.082       .  S
C2483      C2492   1.364       .  A
C2483      C2484   1.380       .  A
C2484      C2485   1.403       .  A
C2484      O2490   1.318       .  A
C2485      C2486   1.402       .  A
C2485      H2494   1.082       .  S
C2486      C2489   1.362       .  A
O2487      C2488   1.330       .  A
C2488      C2489   1.390       .  A
C2489      H2495   1.083       .  S
O2490      C2491   1.331       .  A
C2491      C2492   1.391       .  A
C2492      H2496   1.082       .  S
C2497      C2502   1.381       .  A
C2497      C2498   1.401       .  A
C2497      O2503   1.319       .  A
C2498      C2499   1.401       .  A
C2498      H2509   1.082       .  S
C2499      C2508   1.357       .  A
C2499      C2500   1.381       .  A
C2500      C2501   1.400       .  A
C2500      O2506   1.318       .  A
C2501      C2502   1.401       .  A
C2501      H2510   1.082       .  S
C2502      C2505   1.356       .  A
O2503      C2504   1.329       .  A
C2504      C2505   1.390       .  A
C2505      H2511   1.083       .  S
O2506      C2507   1.329       .  A
C2507      C2508   1.391       .  A
C2508      H2512   1.083       .  S
C2513      C2518   1.381       .  A
C2513      C2514   1.403       .  A
C2513      O2519   1.316       .  A
C2514      C2515   1.401       .  A
C2514      H2525   1.082       .  S
C2515      C2524   1.363       .  A
C2515      C2516   1.381       .  A
C2516      C2517   1.401       .  A
C2516      O2522   1.314       .  A
C2517      C2518   1.398       .  A
C2517      H2526   1.082       .  S
C2518      C2521   1.360       .  A
O2519      C2520   1.330       .  A
C2520      C2521   1.389       .  A
C2521      H2527   1.082       .  S
O2522      C2523   1.329       .  A
C2523      C2524   1.390       .  A
C2524      H2528   1.082       .  S
C2529      C2534   1.380       .  A
C2529      C2530   1.408       .  A
C2529      O2535   1.320       .  A
C2530      C2531   1.406       .  A
C2530      H2541   1.082       .  S
C2531      C2540   1.369       .  A
C2531      C2532   1.380       .  A
C2532      C2533   1.399       .  A
C2532      O2538   1.312       .  A
C2533      C2534   1.396       .  A
C2533      H2542   1.082   1_565  S
C2534      C2537   1.358       .  A
O2535      C2536   1.332       .  A
C2536      C2537   1.386       .  A
C2537      H2543   1.083   1_565  S
O2538      C2539   1.328       .  A
C2539      C2540   1.393       .  A
C2540      H2544   1.082       .  S
C2545      C2550   1.382       .  A
C2545      C2546   1.399       .  A
C2545      O2551   1.319       .  A
C2546      C2547   1.400       .  A
C2546      H2557   1.082       .  S
C2547      C2556   1.354       .  A
C2547      C2548   1.382       .  A
C2548      C2549   1.399       .  A
C2548      O2554   1.318       .  A
C2549      C2550   1.400       .  A
C2549      H2558   1.082       .  S
C2550      C2553   1.354       .  A
O2551      C2552   1.328       .  A
C2552      C2553   1.390       .  A
C2553      H2559   1.083       .  S
O2554      C2555   1.328       .  A
C2555      C2556   1.390       .  A
C2556      H2560   1.083       .  S
C2561      C2566   1.381       .  A
C2561      C2562   1.400       .  A
C2561      O2567   1.319       .  A
C2562      C2563   1.401       .  A
C2562      H2573   1.082       .  S
C2563      C2572   1.356       .  A
C2563      C2564   1.381       .  A
C2564      C2565   1.404       .  A
C2564      O2570   1.323       .  A
C2565      C2566   1.405       .  A
C2565      H2574   1.082       .  S
C2566      C2569   1.361       .  A
O2567      C2568   1.329       .  A
C2568      C2569   1.392       .  A
C2569      H2575   1.082       .  S
O2570      C2571   1.331       .  A
C2571      C2572   1.390       .  A
C2572      H2576   1.083       .  S
C2577      C2582   1.381       .  A
C2577      C2578   1.402       .  A
C2577      O2583   1.319       .  A
C2578      C2579   1.402       .  A
C2578      H2589   1.082       .  S
C2579      C2588   1.358       .  A
C2579      C2580   1.381       .  A
C2580      C2581   1.403       .  A
C2580      O2586   1.321       .  A
C2581      C2582   1.404       .  A
C2581      H2590   1.082       .  S
C2582      C2585   1.360       .  A
O2583      C2584   1.330       .  A
C2584      C2585   1.392       .  A
C2585      H2591   1.083       .  S
O2586      C2587   1.331       .  A
C2587      C2588   1.391       .  A
C2588      H2592   1.083       .  S
C2593      C2598   1.380       .  A
C2593      C2594   1.407       .  A
C2593      O2599   1.319       .  A
C2594      C2595   1.405       .  A
C2594      H2605   1.082       .  S
C2595      C2604   1.368       .  A
C2595      C2596   1.380       .  A
C2596      C2597   1.402       .  A
C2596      O2602   1.315       .  A
C2597      C2598   1.400       .  A
C2597      H2606   1.082       .  S
C2598      C2601   1.362       .  A
O2599      C2600   1.332       .  A
C2600      C2601   1.389       .  A
C2601      H2607   1.083       .  S
O2602      C2603   1.330       .  A
C2603      C2604   1.392       .  A
C2604      H2608   1.082       .  S
C2609      C2614   1.380       .  A
C2609      C2610   1.407       .  A
C2609      O2615   1.321       .  A
C2610      C2611   1.406       .  A
C2610      H2621   1.082       .  S
C2611      C2620   1.368       .  A
C2611      C2612   1.381       .  A
C2612      C2613   1.398       .  A
C2612      O2618   1.312       .  A
C2613      C2614   1.396       .  A
C2613      H2622   1.082       .  S
C2614      C2617   1.356       .  A
O2615      C2616   1.333       .  A
C2616      C2617   1.387       .  A
C2617      H2623   1.083       .  S
O2618      C2619   1.328       .  A
C2619      C2620   1.393       .  A
C2620      H2624   1.082       .  S
C2625      C2630   1.380       .  A
C2625      C2626   1.400       .  A
C2625      O2631   1.313       .  A
C2626      C2627   1.398       .  A
C2626      H2637   1.082       .  S
C2627      C2636   1.359       .  A
C2627      C2628   1.380       .  A
C2628      C2629   1.408       .  A
C2628      O2634   1.321       .  A
C2629      C2630   1.406       .  A
C2629      H2638   1.082       .  S
C2630      C2633   1.370       .  A
O2631      C2632   1.329       .  A
C2632      C2633   1.392       .  A
C2633      H2639   1.082       .  S
O2634      C2635   1.333       .  A
C2635      C2636   1.388       .  A
C2636      H2640   1.083       .  S
C2641      C2646   1.380       .  A
C2641      C2642   1.404       .  A
C2641      O2647   1.317       .  A
C2642      C2643   1.402       .  A
C2642      H2653   1.082       .  S
C2643      C2652   1.363       .  A
C2643      C2644   1.380       .  A
C2644      C2645   1.405       .  A
C2644      O2650   1.319       .  A
C2645      C2646   1.404       .  A
C2645      H2654   1.082       .  S
C2646      C2649   1.366       .  A
O2647      C2648   1.331       .  A
C2648      C2649   1.392       .  A
C2649      H2655   1.082       .  S
O2650      C2651   1.332       .  A
C2651      C2652   1.391       .  A
C2652      H2656   1.082       .  S
C2657      C2662   1.380       .  A
C2657      C2658   1.409       .  A
C2657      O2663   1.322       .  A
C2658      C2659   1.407       .  A
C2658      H2669   1.082       .  S
C2659      C2668   1.370       .  A
C2659      C2660   1.380       .  A
C2660      C2661   1.404       .  A
C2660      O2666   1.318       .  A
C2661      C2662   1.402       .  A
C2661      H2670   1.082       .  S
C2662      C2665   1.364       .  A
O2663      C2664   1.334       .  A
C2664      C2665   1.391       .  A
C2665      H2671   1.082       .  S
O2666      C2667   1.330       .  A
C2667      C2668   1.392       .  A
C2668      H2672   1.082       .  S
C2673      C2678   1.380       .  A
C2673      C2674   1.408       .  A
C2673      O2679   1.321       .  A
C2674      C2675   1.406       .  A
C2674      H2685   1.082       .  S
C2675      C2684   1.370       .  A
C2675      C2676   1.380       .  A
C2676      C2677   1.400       .  A
C2676      O2682   1.312       .  A
C2677      C2678   1.398       .  A
C2677      H2686   1.082       .  S
C2678      C2681   1.359       .  A
O2679      C2680   1.333       .  A
C2680      C2681   1.389       .  A
C2681      H2687   1.083       .  S
O2682      C2683   1.329       .  A
C2683      C2684   1.392       .  A
C2684      H2688   1.082       .  S
C2689      C2694   1.381       .  A
C2689      C2690   1.400       .  A
C2689      O2695   1.319       .  A
C2690      C2691   1.401       .  A
C2690      H2701   1.082       .  S
C2691      C2700   1.355       .  A
C2691      C2692   1.380       .  A
C2692      C2693   1.406       .  A
C2692      O2698   1.324       .  A
C2693      C2694   1.407       .  A
C2693      H2702   1.082       .  S
C2694      C2697   1.362       .  A
O2695      C2696   1.329       .  A
C2696      C2697   1.393       .  A
C2697      H2703   1.082       .  S
O2698      C2699   1.332       .  A
C2699      C2700   1.391       .  A
C2700      H2704   1.083       .  S
C2705      C2710   1.380       .  A
C2705      C2706   1.406   1_545  A
C2705      O2711   1.318   1_545  A
C2706      C2707   1.403   1_565  A
C2706      H2717   1.082       .  S
C2707      C2716   1.367       .  A
C2707      C2708   1.380       .  A
C2708      C2709   1.404       .  A
C2708      O2714   1.317       .  A
C2709      C2710   1.402       .  A
C2709      H2718   1.082       .  S
C2710      C2713   1.365       .  A
O2711      C2712   1.332   1_565  A
C2712      C2713   1.391       .  A
C2713      H2719   1.082       .  S
O2714      C2715   1.331       .  A
C2715      C2716   1.392       .  A
C2716      H2720   1.082       .  S
C2721      C2726   1.381       .  A
C2721      C2722   1.400       .  A
C2721      O2727   1.314       .  A
C2722      C2723   1.398       .  A
C2722      H2733   1.082       .  S
C2723      C2732   1.359       .  A
C2723      C2724   1.380       .  A
C2724      C2725   1.405       .  A
C2724      O2730   1.318       .  A
C2725      C2726   1.403       .  A
C2725      H2734   1.082       .  S
C2726      C2729   1.365       .  A
O2727      C2728   1.329       .  A
C2728      C2729   1.392       .  A
C2729      H2735   1.082       .  S
O2730      C2731   1.332       .  A
C2731      C2732   1.388       .  A
C2732      H2736   1.082       .  S
C2737      C2742   1.381       .  A
C2737      C2738   1.400       .  A
C2737      O2743   1.318       .  A
C2738      C2739   1.400       .  A
C2738      H2749   1.082       .  S
C2739      C2748   1.356       .  A
C2739      C2740   1.381       .  A
C2740      C2741   1.408       .  A
C2740      O2746   1.326       .  A
C2741      C2742   1.409       .  A
C2741      H2750   1.082       .  S
C2742      C2745   1.367       .  A
O2743      C2744   1.329       .  A
C2744      C2745   1.394       .  A
C2745      H2751   1.082       .  S
O2746      C2747   1.333       .  A
C2747      C2748   1.389       .  A
C2748      H2752   1.083       .  S
C2753      C2758   1.380       .  A
C2753      C2754   1.404       .  A
C2753      O2759   1.318       .  A
C2754      C2755   1.403       .  A
C2754      H2765   1.082       .  S
C2755      C2764   1.364       .  A
C2755      C2756   1.381       .  A
C2756      C2757   1.402       .  A
C2756      O2762   1.317       .  A
C2757      C2758   1.401       .  A
C2757      H2766   1.082       .  S
C2758      C2761   1.361       .  A
O2759      C2760   1.331       .  A
C2760      C2761   1.390       .  A
C2761      H2767   1.082       .  S
O2762      C2763   1.330       .  A
C2763      C2764   1.391       .  A
C2764      H2768   1.082       .  S
C2769      C2774   1.380       .  A
C2769      C2770   1.411       .  A
C2769      O2775   1.324       .  A
C2770      C2771   1.410       .  A
C2770      H2781   1.082       .  S
C2771      C2780   1.372       .  A
C2771      C2772   1.381       .  A
C2772      C2773   1.395       .  A
C2772      O2778   1.311       .  A
C2773      C2774   1.393       .  A
C2773      H2782   1.082       .  S
C2774      C2777   1.353       .  A
O2775      C2776   1.334       .  A
C2776      C2777   1.384       .  A
C2777      H2783   1.083       .  S
O2778      C2779   1.326       .  A
C2779      C2780   1.396       .  A
C2780      H2784   1.082       .  S
C2785      C2790   1.381       .  A
C2785      C2786   1.403       .  A
C2785      O2791   1.315       .  A
C2786      C2787   1.400       .  A
C2786      H2797   1.082       .  S
C2787      C2796   1.363       .  A
C2787      C2788   1.381       .  A
C2788      C2789   1.402       .  A
C2788      O2794   1.314       .  A
C2789      C2790   1.399       .  A
C2789      H2798   1.082       .  S
C2790      C2793   1.362       .  A
O2791      C2792   1.330       .  A
C2792      C2793   1.389       .  A
C2793      H2799   1.082       .  S
O2794      C2795   1.330       .  A
C2795      C2796   1.390       .  A
C2796      H2800   1.082       .  S
C2801      C2806   1.380       .  A
C2801      C2802   1.407       .  A
C2801      O2807   1.325       .  A
C2802      C2803   1.407       .  A
C2802      H2813   1.082       .  S
C2803      C2812   1.365       .  A
C2803      C2804   1.380       .  A
C2804      C2805   1.404       .  A
C2804      O2810   1.321       .  A
C2805      C2806   1.404       .  A
C2805      H2814   1.082   1_545  S
C2806      C2809   1.361   1_545  A
O2807      C2808   1.333       .  A
C2808      C2809   1.393   1_545  A
C2809      H2815   1.083       .  S
O2810      C2811   1.332       .  A
C2811      C2812   1.394       .  A
C2812      H2816   1.082       .  S
C2817      C2822   1.380       .  A
C2817      C2818   1.409       .  A
C2817      O2823   1.322       .  A
C2818      C2819   1.408       .  A
C2818      H2829   1.082       .  S
C2819      C2828   1.369       .  A
C2819      C2820   1.380       .  A
C2820      C2821   1.402       .  A
C2820      O2826   1.317       .  A
C2821      C2822   1.400       .  A
C2821      H2830   1.082       .  S
C2822      C2825   1.361       .  A
O2823      C2824   1.334       .  A
C2824      C2825   1.389       .  A
C2825      H2831   1.083       .  S
O2826      C2827   1.329       .  A
C2827      C2828   1.394       .  A
C2828      H2832   1.082       .  S
C2833      C2838   1.380       .  A
C2833      C2834   1.405       .  A
C2833      O2839   1.318       .  A
C2834      C2835   1.403       .  A
C2834      H2845   1.082       .  S
C2835      C2844   1.364       .  A
C2835      C2836   1.380       .  A
C2836      C2837   1.404       .  A
C2836      O2842   1.318       .  A
C2837      C2838   1.402       .  A
C2837      H2846   1.082       .  S
C2838      C2841   1.364       .  A
O2839      C2840   1.332       .  A
C2840      C2841   1.391       .  A
C2841      H2847   1.082       .  S
O2842      C2843   1.331       .  A
C2843      C2844   1.392       .  A
C2844      H2848   1.082       .  S
C2849      C2854   1.381       .  A
C2849      C2850   1.401       .  A
C2849      O2855   1.318       .  A
C2850      C2851   1.401       .  A
C2850      H2861   1.082       .  S
C2851      C2860   1.358       .  A
C2851      C2852   1.381       .  A
C2852      C2853   1.405       .  A
C2852      O2858   1.322       .  A
C2853      C2854   1.405       .  A
C2853      H2862   1.082       .  S
C2854      C2857   1.363       .  A
O2855      C2856   1.329       .  A
C2856      C2857   1.392       .  A
C2857      H2863   1.082       .  S
O2858      C2859   1.331       .  A
C2859      C2860   1.390       .  A
C2860      H2864   1.083       .  S
C2865      C2870   1.381       .  A
C2865      C2866   1.401       .  A
C2865      O2871   1.321       .  A
C2866      C2867   1.403       .  A
C2866      H2877   1.082       .  S
C2867      C2876   1.356       .  A
C2867      C2868   1.381       .  A
C2868      C2869   1.401       .  A
C2868      O2874   1.321       .  A
C2869      C2870   1.403       .  A
C2869      H2878   1.082       .  S
C2870      C2873   1.356       .  A
O2871      C2872   1.330       .  A
C2872      C2873   1.392       .  A
C2873      H2879   1.083       .  S
O2874      C2875   1.330       .  A
C2875      C2876   1.391       .  A
C2876      H2880   1.083       .  S
C2881      C2886   1.380       .  A
C2881      C2882   1.401       .  A
C2881      O2887   1.314       .  A
C2882      C2883   1.399       .  A
C2882      H2893   1.082       .  S
C2883      C2892   1.361       .  A
C2883      C2884   1.380       .  A
C2884      C2885   1.405       .  A
C2884      O2890   1.318       .  A
C2885      C2886   1.403       .  A
C2885      H2894   1.082       .  S
C2886      C2889   1.367       .  A
O2887      C2888   1.329       .  A
C2888      C2889   1.391       .  A
C2889      H2895   1.082       .  S
O2890      C2891   1.331       .  A
C2891      C2892   1.388       .  A
C2892      H2896   1.083       .  S
C2897      C2902   1.381       .  A
C2897      C2898   1.402       .  A
C2897      O2903   1.320       .  A
C2898      C2899   1.402       .  A
C2898      H2909   1.082       .  S
C2899      C2908   1.359       .  A
C2899      C2900   1.380       .  A
C2900      C2901   1.406       .  A
C2900      O2906   1.324       .  A
C2901      C2902   1.407       .  A
C2901      H2910   1.082       .  S
C2902      C2905   1.364       .  A
O2903      C2904   1.330       .  A
C2904      C2905   1.392       .  A
C2905      H2911   1.083       .  S
O2906      C2907   1.332       .  A
C2907      C2908   1.391       .  A
C2908      H2912   1.083       .  S
C2913      C2918   1.380       .  A
C2913      C2914   1.406       .  A
C2913      O2919   1.319       .  A
C2914      C2915   1.404       .  A
C2914      H2925   1.082       .  S
C2915      C2924   1.366       .  A
C2915      C2916   1.381       .  A
C2916      C2917   1.400       .  A
C2916      O2922   1.314       .  A
C2917      C2918   1.398       .  A
C2917      H2926   1.082       .  S
C2918      C2921   1.358       .  A
O2919      C2920   1.332       .  A
C2920      C2921   1.388       .  A
C2921      H2927   1.083       .  S
O2922      C2923   1.328       .  A
C2923      C2924   1.392       .  A
C2924      H2928   1.082       .  S
C2929      C2934   1.380       .  A
C2929      C2930   1.404       .  A
C2929      O2935   1.318   1_554  A
C2930      C2931   1.403       .  A
C2930      H2941   1.082   1_554  S
C2931      C2940   1.364       .  A
C2931      C2932   1.380       .  A
C2932      C2933   1.407       .  A
C2932      O2938   1.321       .  A
C2933      C2934   1.406       .  A
C2933      H2942   1.082       .  S
C2934      C2937   1.368       .  A
O2935      C2936   1.331   1_556  A
C2936      C2937   1.393       .  A
C2937      H2943   1.082       .  S
O2938      C2939   1.333       .  A
C2939      C2940   1.392       .  A
C2940      H2944   1.082       .  S
C2945      C2950   1.381       .  A
C2945      C2946   1.401       .  A
C2945      O2951   1.318       .  A
C2946      C2947   1.401       .  A
C2946      H2957   1.082       .  S
C2947      C2956   1.358       .  A
C2947      C2948   1.381       .  A
C2948      C2949   1.403       .  A
C2948      O2954   1.320       .  A
C2949      C2950   1.403       .  A
C2949      H2958   1.082       .  S
C2950      C2953   1.361       .  A
O2951      C2952   1.329       .  A
C2952      C2953   1.391       .  A
C2953      H2959   1.082       .  S
O2954      C2955   1.330       .  A
C2955      C2956   1.391       .  A
C2956      H2960   1.083       .  S
C2961      C2966   1.381       .  A
C2961      C2962   1.405       .  A
C2961      O2967   1.319       .  A
C2962      C2963   1.403       .  A
C2962      H2973   1.082       .  S
C2963      C2972   1.365       .  A
C2963      C2964   1.381       .  A
C2964      C2965   1.401       .  A
C2964      O2970   1.315       .  A
C2965      C2966   1.400       .  A
C2965      H2974   1.082       .  S
C2966      C2969   1.360       .  A
O2967      C2968   1.331       .  A
C2968      C2969   1.389       .  A
C2969      H2975   1.083       .  S
O2970      C2971   1.329       .  A
C2971      C2972   1.390       .  A
C2972      H2976   1.082       .  S
C2977      C2982   1.380       .  A
C2977      C2978   1.405       .  A
C2977      O2983   1.322       .  A
C2978      C2979   1.405       .  A
C2978      H2989   1.082       .  S
C2979      C2988   1.362       .  A
C2979      C2980   1.381       .  A
C2980      C2981   1.403       .  A
C2980      O2986   1.320       .  A
C2981      C2982   1.403       .  A
C2981      H2990   1.082       .  S
C2982      C2985   1.360       .  A
O2983      C2984   1.331       .  A
C2984      C2985   1.392       .  A
C2985      H2991   1.083       .  S
O2986      C2987   1.331       .  A
C2987      C2988   1.392       .  A
C2988      H2992   1.082       .  S
C2993      C2998   1.380       .  A
C2993      C2994   1.410       .  A
C2993      O2999   1.322       .  A
C2994      C2995   1.408       .  A
C2994      H3005   1.082       .  S
C2995      C3004   1.372       .  A
C2995      C2996   1.380       .  A
C2996      C2997   1.398       .  A
C2996      O3002   1.312       .  A
C2997      C2998   1.396       .  A
C2997      H3006   1.082       .  S
C2998      C3001   1.358       .  A
O2999      C3000   1.334       .  A
C3000      C3001   1.386       .  A
C3001      H3007   1.083       .  S
O3002      C3003   1.328       .  A
C3003      C3004   1.394       .  A
C3004      H3008   1.082       .  S
C3009      C3014   1.380       .  A
C3009      C3010   1.402       .  A
C3009      O3015   1.314       .  A
C3010      C3011   1.399       .  A
C3010      H3021   1.082       .  S
C3011      C3020   1.362       .  A
C3011      C3012   1.380       .  A
C3012      C3013   1.405       .  A
C3012      O3018   1.316       .  A
C3013      C3014   1.402       .  A
C3013      H3022   1.082       .  S
C3014      C3017   1.365       .  A
O3015      C3016   1.330       .  A
C3016      C3017   1.391       .  A
C3017      H3023   1.082       .  S
O3018      C3019   1.331       .  A
C3019      C3020   1.389       .  A
C3020      H3024   1.082       .  S
C3025      C3030   1.380       .  A
C3025      C3026   1.401       .  A
C3025      O3031   1.314       .  A
C3026      C3027   1.399       .  A
C3026      H3037   1.082       .  S
C3027      C3036   1.361       .  A
C3027      C3028   1.380       .  A
C3028      C3029   1.407       .  A
C3028      O3034   1.320       .  A
C3029      C3030   1.405       .  A
C3029      H3038   1.082       .  S
C3030      C3033   1.369       .  A
O3031      C3032   1.329       .  A
C3032      C3033   1.392       .  A
C3033      H3039   1.082       .  S
O3034      C3035   1.332       .  A
C3035      C3036   1.388       .  A
C3036      H3040   1.083       .  S
C3041      C3046   1.381       .  A
C3041      C3042   1.402       .  A
C3041      O3047   1.314       .  A
C3042      C3043   1.400       .  A
C3042      H3053   1.082       .  S
C3043      C3052   1.363       .  A
C3043      C3044   1.381       .  A
C3044      C3045   1.400       .  A
C3044      O3050   1.312       .  A
C3045      C3046   1.398       .  A
C3045      H3054   1.082       .  S
C3046      C3049   1.361       .  A
O3047      C3048   1.330       .  A
C3048      C3049   1.389       .  A
C3049      H3055   1.082       .  S
O3050      C3051   1.329       .  A
C3051      C3052   1.389       .  A
C3052      H3056   1.082       .  S
C3057      C3062   1.380       .  A
C3057      C3058   1.405       .  A
C3057      O3063   1.323       .  A
C3058      C3059   1.406   1_554  A
C3058      H3069   1.082   1_554  S
C3059      C3068   1.363       .  A
C3059      C3060   1.380   1_556  A
C3060      C3061   1.404       .  A
C3060      O3066   1.321       .  A
C3061      C3062   1.404       .  A
C3061      H3070   1.082       .  S
C3062      C3065   1.361       .  A
O3063      C3064   1.332       .  A
C3064      C3065   1.393       .  A
C3065      H3071   1.083       .  S
O3066      C3067   1.332   1_554  A
C3067      C3068   1.393       .  A
C3068      H3072   1.082       .  S
C3073      C3078   1.380       .  A
C3073      C3074   1.409       .  A
C3073      O3079   1.324       .  A
C3074      C3075   1.409       .  A
C3074      H3085   1.082       .  S
C3075      C3084   1.368       .  A
C3075      C3076   1.380       .  A
C3076      C3077   1.402       .  A
C3076      O3082   1.318       .  A
C3077      C3078   1.401       .  A
C3077      H3086   1.082       .  S
C3078      C3081   1.360       .  A
O3079      C3080   1.333       .  A
C3080      C3081   1.389       .  A
C3081      H3087   1.083       .  S
O3082      C3083   1.330       .  A
C3083      C3084   1.394       .  A
C3084      H3088   1.082       .  S
C3089      C3094   1.380       .  A
C3089      C3090   1.403       .  A
C3089      O3095   1.315       .  A
C3090      C3091   1.401       .  A
C3090      H3101   1.082       .  S
C3091      C3100   1.362       .  A
C3091      C3092   1.381       .  A
C3092      C3093   1.403       .  A
C3092      O3098   1.316       .  A
C3093      C3094   1.401       .  A
C3093      H3102   1.082       .  S
C3094      C3097   1.363       .  A
O3095      C3096   1.330       .  A
C3096      C3097   1.389       .  A
C3097      H3103   1.082       .  S
O3098      C3099   1.330       .  A
C3099      C3100   1.390       .  A
C3100      H3104   1.082       .  S
C3105      C3110   1.381       .  A
C3105      C3106   1.403       .  A
C3105      O3111   1.319       .  A
C3106      C3107   1.402       .  A
C3106      H3117   1.082       .  S
C3107      C3116   1.360       .  A
C3107      C3108   1.381       .  A
C3108      C3109   1.404       .  A
C3108      O3114   1.321       .  A
C3109      C3110   1.404       .  A
C3109      H3118   1.082       .  S
C3110      C3113   1.362       .  A
O3111      C3112   1.330       .  A
C3112      C3113   1.390       .  A
C3113      H3119   1.083       .  S
O3114      C3115   1.331       .  A
C3115      C3116   1.391       .  A
C3116      H3120   1.083       .  S
C3121      C3126   1.382       .  A
C3121      C3122   1.404       .  A
C3121      O3127   1.322       .  A
C3122      C3123   1.404       .  A
C3122      H3133   1.082       .  S
C3123      C3132   1.360       .  A
C3123      C3124   1.381       .  A
C3124      C3125   1.398       .  A
C3124      O3130   1.317       .  A
C3125      C3126   1.399       .  A
C3125      H3134   1.082       .  S
C3126      C3129   1.353       .  A
O3127      C3128   1.330       .  A
C3128      C3129   1.388       .  A
C3129      H3135   1.083   1_565  S
O3130      C3131   1.328       .  A
C3131      C3132   1.392       .  A
C3132      H3136   1.082       .  S
C3137      C3142   1.380       .  A
C3137      C3138   1.404       .  A
C3137      O3143   1.315       .  A
C3138      C3139   1.401       .  A
C3138      H3149   1.082       .  S
C3139      C3148   1.365       .  A
C3139      C3140   1.380       .  A
C3140      C3141   1.402       .  A
C3140      O3146   1.313       .  A
C3141      C3142   1.399       .  A
C3141      H3150   1.082       .  S
C3142      C3145   1.363       .  A
O3143      C3144   1.331       .  A
C3144      C3145   1.389       .  A
C3145      H3151   1.082       .  S
O3146      C3147   1.330       .  A
C3147      C3148   1.390       .  A
C3148      H3152   1.082       .  S
C3153      C3158   1.380       .  A
C3153      C3154   1.406       .  A
C3153      O3159   1.320       .  A
C3154      C3155   1.405       .  A
C3154      H3165   1.082       .  S
C3155      C3164   1.368       .  A
C3155      C3156   1.379       .  A
C3156      C3157   1.408       .  A
C3156      O3162   1.320       .  A
C3157      C3158   1.406       .  A
C3157      H3166   1.082       .  S
C3158      C3161   1.368       .  A
O3159      C3160   1.332       .  A
C3160      C3161   1.393       .  A
C3161      H3167   1.082       .  S
O3162      C3163   1.333       .  A
C3163      C3164   1.393       .  A
C3164      H3168   1.082       .  S
C3169      C3174   1.381       .  A
C3169      C3170   1.404       .  A
C3169      O3175   1.321       .  A
C3170      C3171   1.404       .  A
C3170      H3181   1.082       .  S
C3171      C3180   1.361       .  A
C3171      C3172   1.381       .  A
C3172      C3173   1.401       .  A
C3172      O3178   1.318       .  A
C3173      C3174   1.401       .  A
C3173      H3182   1.082       .  S
C3174      C3177   1.359       .  A
O3175      C3176   1.331       .  A
C3176      C3177   1.391       .  A
C3177      H3183   1.083       .  S
O3178      C3179   1.329       .  A
C3179      C3180   1.392       .  A
C3180      H3184   1.083       .  S
C3185      C3190   1.379       .  A
C3185      C3186   1.410       .  A
C3185      O3191   1.322       .  A
C3186      C3187   1.408       .  A
C3186      H3197   1.082       .  S
C3187      C3196   1.372       .  A
C3187      C3188   1.380       .  A
C3188      C3189   1.403       .  A
C3188      O3194   1.316   1_545  A
C3189      C3190   1.401       .  A
C3189      H3198   1.082   1_545  S
C3190      C3193   1.364       .  A
O3191      C3192   1.334       .  A
C3192      C3193   1.391       .  A
C3193      H3199   1.082       .  S
O3194      C3195   1.331   1_565  A
C3195      C3196   1.395       .  A
C3196      H3200   1.082       .  S
C3201      C3206   1.380       .  A
C3201      C3202   1.406       .  A
C3201      O3207   1.323       .  A
C3202      C3203   1.406       .  A
C3202      H3213   1.082       .  S
C3203      C3212   1.365       .  A
C3203      C3204   1.380       .  A
C3204      C3205   1.404       .  A
C3204      O3210   1.321       .  A
C3205      C3206   1.404       .  A
C3205      H3214   1.082       .  S
C3206      C3209   1.362       .  A
O3207      C3208   1.332       .  A
C3208      C3209   1.391       .  A
C3209      H3215   1.083       .  S
O3210      C3211   1.331       .  A
C3211      C3212   1.392       .  A
C3212      H3216   1.083       .  S
C3217      C3222   1.381       .  A
C3217      C3218   1.400       .  A
C3217      O3223   1.317       .  A
C3218      C3219   1.400       .  A
C3218      H3229   1.082       .  S
C3219      C3228   1.357       .  A
C3219      C3220   1.381       .  A
C3220      C3221   1.403       .  A
C3220      O3226   1.319       .  A
C3221      C3222   1.402       .  A
C3221      H3230   1.082       .  S
C3222      C3225   1.360       .  A
O3223      C3224   1.329       .  A
C3224      C3225   1.391       .  A
C3225      H3231   1.083       .  S
O3226      C3227   1.330       .  A
C3227      C3228   1.389       .  A
C3228      H3232   1.083       .  S
C3233      C3238   1.380       .  A
C3233      C3234   1.404       .  A
C3233      O3239   1.317       .  A
C3234      C3235   1.402       .  A
C3234      H3245   1.082       .  S
C3235      C3244   1.364       .  A
C3235      C3236   1.380       .  A
C3236      C3237   1.407       .  A
C3236      O3242   1.320       .  A
C3237      C3238   1.405       .  A
C3237      H3246   1.082       .  S
C3238      C3241   1.368       .  A
O3239      C3240   1.331       .  A
C3240      C3241   1.393       .  A
C3241      H3247   1.082   1_545  S
O3242      C3243   1.332       .  A
C3243      C3244   1.391       .  A
C3244      H3248   1.082       .  S
C3249      C3254   1.380       .  A
C3249      C3250   1.405       .  A
C3249      O3255   1.318       .  A
C3250      C3251   1.403       .  A
C3250      H3261   1.082       .  S
C3251      C3260   1.364       .  A
C3251      C3252   1.380       .  A
C3252      C3253   1.402       .  A
C3252      O3258   1.316       .  A
C3253      C3254   1.400       .  A
C3253      H3262   1.082       .  S
C3254      C3257   1.362       .  A
O3255      C3256   1.332       .  A
C3256      C3257   1.389       .  A
C3257      H3263   1.082       .  S
O3258      C3259   1.330       .  A
C3259      C3260   1.392       .  A
C3260      H3264   1.082       .  S
C3265      C3270   1.380       .  A
C3265      C3266   1.406       .  A
C3265      O3271   1.320       .  A
C3266      C3267   1.404       .  A
C3266      H3277   1.082       .  S
C3267      C3276   1.365       .  A
C3267      C3268   1.380       .  A
C3268      C3269   1.403       .  A
C3268      O3274   1.318       .  A
C3269      C3270   1.402       .  A
C3269      H3278   1.082       .  S
C3270      C3273   1.363       .  A
O3271      C3272   1.332       .  A
C3272      C3273   1.390       .  A
C3273      H3279   1.082       .  S
O3274      C3275   1.331       .  A
C3275      C3276   1.392       .  A
C3276      H3280   1.082       .  S
C3281      C3286   1.381       .  A
C3281      C3282   1.404       .  A
C3281      O3287   1.319       .  A
C3282      C3283   1.403       .  A
C3282      H3293   1.082       .  S
C3283      C3292   1.363       .  A
C3283      C3284   1.380       .  A
C3284      C3285   1.404       .  A
C3284      O3290   1.319       .  A
C3285      C3286   1.403       .  A
C3285      H3294   1.082       .  S
C3286      C3289   1.363       .  A
O3287      C3288   1.330       .  A
C3288      C3289   1.390       .  A
C3289      H3295   1.082       .  S
O3290      C3291   1.331       .  A
C3291      C3292   1.391       .  A
C3292      H3296   1.082       .  S
C3297      C3302   1.381       .  A
C3297      C3298   1.400       .  A
C3297      O3303   1.319       .  A
C3298      C3299   1.401       .  A
C3298      H3309   1.082       .  S
C3299      C3308   1.356       .  A
C3299      C3300   1.381       .  A
C3300      C3301   1.401       .  A
C3300      O3306   1.320       .  A
C3301      C3302   1.402       .  A
C3301      H3310   1.082       .  S
C3302      C3305   1.357       .  A
O3303      C3304   1.329       .  A
C3304      C3305   1.391       .  A
C3305      H3311   1.083       .  S
O3306      C3307   1.330       .  A
C3307      C3308   1.391       .  A
C3308      H3312   1.083       .  S
C3313      C3318   1.380       .  A
C3313      C3314   1.403       .  A
C3313      O3319   1.321       .  A
C3314      C3315   1.404       .  A
C3314      H3325   1.082       .  S
C3315      C3324   1.360       .  A
C3315      C3316   1.380       .  A
C3316      C3317   1.407       .  A
C3316      O3322   1.325       .  A
C3317      C3318   1.408       .  A
C3317      H3326   1.082       .  S
C3318      C3321   1.365       .  A
O3319      C3320   1.331       .  A
C3320      C3321   1.394       .  A
C3321      H3327   1.082       .  S
O3322      C3323   1.333       .  A
C3323      C3324   1.393       .  A
C3324      H3328   1.083   1_545  S
C3329      C3334   1.381       .  A
C3329      C3330   1.401       .  A
C3329      O3335   1.319       .  A
C3330      C3331   1.401       .  A
C3330      H3341   1.082       .  S
C3331      C3340   1.357       .  A
C3331      C3332   1.381       .  A
C3332      C3333   1.405       .  A
C3332      O3338   1.322       .  A
C3333      C3334   1.405       .  A
C3333      H3342   1.082       .  S
C3334      C3337   1.362       .  A
O3335      C3336   1.329       .  A
C3336      C3337   1.392       .  A
C3337      H3343   1.082       .  S
O3338      C3339   1.331       .  A
C3339      C3340   1.390       .  A
C3340      H3344   1.083       .  S
C3345      C3350   1.381       .  A
C3345      C3346   1.403       .  A
C3345      O3351   1.321       .  A
C3346      C3347   1.404       .  A
C3346      H3357   1.082       .  S
C3347      C3356   1.360       .  A
C3347      C3348   1.381       .  A
C3348      C3349   1.401       .  A
C3348      O3354   1.319       .  A
C3349      C3350   1.401       .  A
C3349      H3358   1.082       .  S
C3350      C3353   1.357       .  A
O3351      C3352   1.331       .  A
C3352      C3353   1.390       .  A
C3353      H3359   1.083       .  S
O3354      C3355   1.329       .  A
C3355      C3356   1.392       .  A
C3356      H3360   1.083       .  S
C3361      C3366   1.380       .  A
C3361      C3362   1.405       .  A
C3361      O3367   1.319       .  A
C3362      C3363   1.403       .  A
C3362      H3373   1.082       .  S
C3363      C3372   1.365       .  A
C3363      C3364   1.380       .  A
C3364      C3365   1.404       .  A
C3364      O3370   1.318       .  A
C3365      C3366   1.402       .  A
C3365      H3374   1.082       .  S
C3366      C3369   1.364       .  A
O3367      C3368   1.332       .  A
C3368      C3369   1.391       .  A
C3369      H3375   1.082       .  S
O3370      C3371   1.331       .  A
C3371      C3372   1.390       .  A
C3372      H3376   1.082       .  S
C3377      C3382   1.381       .  A
C3377      C3378   1.399       .  A
C3377      O3383   1.318       .  A
C3378      C3379   1.400       .  A
C3378      H3389   1.082       .  S
C3379      C3388   1.354       .  A
C3379      C3380   1.381       .  A
C3380      C3381   1.406       .  A
C3380      O3386   1.324       .  A
C3381      C3382   1.406       .  A
C3381      H3390   1.082       .  S
C3382      C3385   1.363       .  A
O3383      C3384   1.328       .  A
C3384      C3385   1.393       .  A
C3385      H3391   1.082       .  S
O3386      C3387   1.332       .  A
C3387      C3388   1.389       .  A
C3388      H3392   1.083   1_565  S
C3393      C3398   1.382       .  A
C3393      C3394   1.398       .  A
C3393      O3399   1.317       .  A
C3394      C3395   1.399       .  A
C3394      H3405   1.082       .  S
C3395      C3404   1.354       .  A
C3395      C3396   1.381       .  A
C3396      C3397   1.401       .  A
C3396      O3402   1.319       .  A
C3397      C3398   1.402       .  A
C3397      H3406   1.082       .  S
C3398      C3401   1.357       .  A
O3399      C3400   1.328       .  A
C3400      C3401   1.391       .  A
C3401      H3407   1.083       .  S
O3402      C3403   1.330       .  A
C3403      C3404   1.389       .  A
C3404      H3408   1.083       .  S
C3409      C3414   1.381       .  A
C3409      C3410   1.404       .  A
C3409      O3415   1.323       .  A
C3410      C3411   1.405       .  A
C3410      H3421   1.082       .  S
C3411      C3420   1.361       .  A
C3411      C3412   1.381       .  A
C3412      C3413   1.402       .  A
C3412      O3418   1.321       .  A
C3413      C3414   1.403       .  A
C3413      H3422   1.082       .  S
C3414      C3417   1.358       .  A
O3415      C3416   1.331       .  A
C3416      C3417   1.392       .  A
C3417      H3423   1.083       .  S
O3418      C3419   1.330       .  A
C3419      C3420   1.392       .  A
C3420      H3424   1.082       .  S
C3425      C3430   1.381       .  A
C3425      C3426   1.399       .  A
C3425      O3431   1.317       .  A
C3426      C3427   1.400       .  A
C3426      H3437   1.082       .  S
C3427      C3436   1.356       .  A
C3427      C3428   1.380       .  A
C3428      C3429   1.410       .  A
C3428      O3434   1.326       .  A
C3429      C3430   1.410       .  A
C3429      H3438   1.082       .  S
C3430      C3433   1.369       .  A
O3431      C3432   1.328       .  A
C3432      C3433   1.395       .  A
C3433      H3439   1.082       .  S
O3434      C3435   1.334       .  A
C3435      C3436   1.390       .  A
C3436      H3440   1.083       .  S
C3441      C3446   1.381       .  A
C3441      C3442   1.401       .  A
C3441      O3447   1.319       .  A
C3442      C3443   1.401       .  A
C3442      H3453   1.082       .  S
C3443      C3452   1.357       .  A
C3443      C3444   1.381       .  A
C3444      C3445   1.405       .  A
C3444      O3450   1.322       .  A
C3445      C3446   1.405       .  A
C3445      H3454   1.082       .  S
C3446      C3449   1.362       .  A
O3447      C3448   1.329       .  A
C3448      C3449   1.393       .  A
C3449      H3455   1.083       .  S
O3450      C3451   1.332       .  A
C3451      C3452   1.390       .  A
C3452      H3456   1.083       .  S
C3457      C3462   1.380       .  A
C3457      C3458   1.402       .  A
C3457      O3463   1.317       .  A
C3458      C3459   1.401       .  A
C3458      H3469   1.082       .  S
C3459      C3468   1.361       .  A
C3459      C3460   1.380       .  A
C3460      C3461   1.408       .  A
C3460      O3466   1.322       .  A
C3461      C3462   1.407       .  A
C3461      H3470   1.082       .  S
C3462      C3465   1.368       .  A
O3463      C3464   1.330       .  A
C3464      C3465   1.394       .  A
C3465      H3471   1.082       .  S
O3466      C3467   1.333       .  A
C3467      C3468   1.390       .  A
C3468      H3472   1.082       .  S
C3473      C3478   1.380       .  A
C3473      C3474   1.405       .  A
C3473      O3479   1.318       .  A
C3474      C3475   1.403       .  A
C3474      H3485   1.082       .  S
C3475      C3484   1.366       .  A
C3475      C3476   1.380       .  A
C3476      C3477   1.403       .  A
C3476      O3482   1.316       .  A
C3477      C3478   1.401       .  A
C3477      H3486   1.082       .  S
C3478      C3481   1.362       .  A
O3479      C3480   1.331       .  A
C3480      C3481   1.390       .  A
C3481      H3487   1.083       .  S
O3482      C3483   1.330       .  A
C3483      C3484   1.391       .  A
C3484      H3488   1.082       .  S
C3489      C3494   1.380       .  A
C3489      C3490   1.404       .  A
C3489      O3495   1.318       .  A
C3490      C3491   1.402       .  A
C3490      H3501   1.082       .  S
C3491      C3500   1.365       .  A
C3491      C3492   1.380       .  A
C3492      C3493   1.404       .  A
C3492      O3498   1.317       .  A
C3493      C3494   1.403       .  A
C3493      H3502   1.082       .  S
C3494      C3497   1.364       .  A
O3495      C3496   1.331       .  A
C3496      C3497   1.391       .  A
C3497      H3503   1.082       .  S
O3498      C3499   1.331       .  A
C3499      C3500   1.391       .  A
C3500      H3504   1.082       .  S
C3505      C3510   1.380       .  A
C3505      C3506   1.409       .  A
C3505      O3511   1.322       .  A
C3506      C3507   1.408       .  A
C3506      H3517   1.082       .  S
C3507      C3516   1.371       .  A
C3507      C3508   1.380       .  A
C3508      C3509   1.401       .  A
C3508      O3514   1.314       .  A
C3509      C3510   1.398       .  A
C3509      H3518   1.082       .  S
C3510      C3513   1.360       .  A
O3511      C3512   1.333       .  A
C3512      C3513   1.388       .  A
C3513      H3519   1.083       .  S
O3514      C3515   1.329       .  A
C3515      C3516   1.394       .  A
C3516      H3520   1.082       .  S
C3521      C3526   1.381       .  A
C3521      C3522   1.402       .  A
C3521      O3527   1.320       .  A
C3522      C3523   1.403       .  A
C3522      H3533   1.082       .  S
C3523      C3532   1.359       .  A
C3523      C3524   1.381       .  A
C3524      C3525   1.399       .  A
C3524      O3530   1.318       .  A
C3525      C3526   1.400       .  A
C3525      H3534   1.082       .  S
C3526      C3529   1.355       .  A
O3527      C3528   1.330       .  A
C3528      C3529   1.390       .  A
C3529      H3535   1.083       .  S
O3530      C3531   1.329       .  A
C3531      C3532   1.391       .  A
C3532      H3536   1.083       .  S
C3537      C3542   1.382       .  A
C3537      C3538   1.404       .  A
C3537      O3543   1.323       .  A
C3538      C3539   1.405       .  A
C3538      H3549   1.082       .  S
C3539      C3548   1.362       .  A
C3539      C3540   1.381       .  A
C3540      C3541   1.399       .  A
C3540      O3546   1.317       .  A
C3541      C3542   1.399       .  A
C3541      H3550   1.082       .  S
C3542      C3545   1.354       .  A
O3543      C3544   1.330       .  A
C3544      C3545   1.387       .  A
C3545      H3551   1.083       .  S
O3546      C3547   1.328       .  A
C3547      C3548   1.392       .  A
C3548      H3552   1.082       .  S
C3553      C3558   1.380       .  A
C3553      C3554   1.402       .  A
C3553      O3559   1.316       .  A
C3554      C3555   1.401       .  A
C3554      H3565   1.082       .  S
C3555      C3564   1.362       .  A
C3555      C3556   1.380       .  A
C3556      C3557   1.406       .  A
C3556      O3562   1.319       .  A
C3557      C3558   1.404       .  A
C3557      H3566   1.082       .  S
C3558      C3561   1.366       .  A
O3559      C3560   1.330       .  A
C3560      C3561   1.391       .  A
C3561      H3567   1.082       .  S
O3562      C3563   1.332       .  A
C3563      C3564   1.390       .  A
C3564      H3568   1.082       .  S
C3569      C3574   1.380       .  A
C3569      C3570   1.405       .  A
C3569      O3575   1.318       .  A
C3570      C3571   1.403       .  A
C3570      H3581   1.082       .  S
C3571      C3580   1.364       .  A
C3571      C3572   1.380       .  A
C3572      C3573   1.405       .  A
C3572      O3578   1.319       .  A
C3573      C3574   1.404       .  A
C3573      H3582   1.082       .  S
C3574      C3577   1.366       .  A
O3575      C3576   1.332       .  A
C3576      C3577   1.392       .  A
C3577      H3583   1.082       .  S
O3578      C3579   1.332       .  A
C3579      C3580   1.391       .  A
C3580      H3584   1.082       .  S
C3585      C3590   1.380       .  A
C3585      C3586   1.403       .  A
C3585      O3591   1.316       .  A
C3586      C3587   1.401       .  A
C3586      H3597   1.082       .  S
C3587      C3596   1.363       .  A
C3587      C3588   1.380       .  A
C3588      C3589   1.408       .  A
C3588      O3594   1.321       .  A
C3589      C3590   1.406       .  A
C3589      H3598   1.082       .  S
C3590      C3593   1.369       .  A
O3591      C3592   1.330       .  A
C3592      C3593   1.393       .  A
C3593      H3599   1.082       .  S
O3594      C3595   1.333       .  A
C3595      C3596   1.390       .  A
C3596      H3600   1.083       .  S
C3601      C3606   1.381       .  A
C3601      C3602   1.400       .  A
C3601      O3607   1.312       .  A
C3602      C3603   1.397       .  A
C3602      H3613   1.082       .  S
C3603      C3612   1.360       .  A
C3603      C3604   1.380       .  A
C3604      C3605   1.408       .  A
C3604      O3610   1.320       .  A
C3605      C3606   1.405       .  A
C3605      H3614   1.082       .  S
C3606      C3609   1.370       .  A
O3607      C3608   1.328       .  A
C3608      C3609   1.391       .  A
C3609      H3615   1.082       .  S
O3610      C3611   1.332       .  A
C3611      C3612   1.388       .  A
C3612      H3616   1.083       .  S
C3617      C3622   1.380       .  A
C3617      C3618   1.405       .  A
C3617      O3623   1.316       .  A
C3618      C3619   1.402       .  A
C3618      H3629   1.082       .  S
C3619      C3628   1.366       .  A
C3619      C3620   1.380       .  A
C3620      C3621   1.403       .  A
C3620      O3626   1.315       .  A
C3621      C3622   1.400       .  A
C3621      H3630   1.082       .  S
C3622      C3625   1.364       .  A
O3623      C3624   1.332       .  A
C3624      C3625   1.389       .  A
C3625      H3631   1.082       .  S
O3626      C3627   1.330       .  A
C3627      C3628   1.391       .  A
C3628      H3632   1.082       .  S
C3633      C3638   1.380       .  A
C3633      C3634   1.403       .  A
C3633      O3639   1.314       .  A
C3634      C3635   1.401       .  A
C3634      H3645   1.082       .  S
C3635      C3644   1.365       .  A
C3635      C3636   1.380       .  A
C3636      C3637   1.402       .  A
C3636      O3642   1.313       .  A
C3637      C3638   1.399       .  A
C3637      H3646   1.082       .  S
C3638      C3641   1.363       .  A
O3639      C3640   1.330       .  A
C3640      C3641   1.389       .  A
C3641      H3647   1.082       .  S
O3642      C3643   1.330       .  A
C3643      C3644   1.390       .  A
C3644      H3648   1.082       .  S
C3649      C3654   1.381       .  A
C3649      C3650   1.403       .  A
C3649      O3655   1.320       .  A
C3650      C3651   1.403       .  A
C3650      H3661   1.082       .  S
C3651      C3660   1.361       .  A
C3651      C3652   1.381       .  A
C3652      C3653   1.402       .  A
C3652      O3658   1.319       .  A
C3653      C3654   1.402       .  A
C3653      H3662   1.082       .  S
C3654      C3657   1.359       .  A
O3655      C3656   1.331       .  A
C3656      C3657   1.391       .  A
C3657      H3663   1.083       .  S
O3658      C3659   1.330       .  A
C3659      C3660   1.391       .  A
C3660      H3664   1.083       .  S
C3665      C3670   1.381       .  A
C3665      C3666   1.398       .  A
C3665      O3671   1.317       .  A
C3666      C3667   1.399       .  A
C3666      H3677   1.082       .  S
C3667      C3676   1.354       .  A
C3667      C3668   1.381       .  A
C3668      C3669   1.407       .  A
C3668      O3674   1.325       .  A
C3669      C3670   1.408       .  A
C3669      H3678   1.082       .  S
C3670      C3673   1.364       .  A
O3671      C3672   1.328       .  A
C3672      C3673   1.393       .  A
C3673      H3679   1.082       .  S
O3674      C3675   1.333       .  A
C3675      C3676   1.388       .  A
C3676      H3680   1.083       .  S
C3681      C3686   1.380       .  A
C3681      C3682   1.405       .  A
C3681      O3687   1.318       .  A
C3682      C3683   1.403       .  A
C3682      H3693   1.082       .  S
C3683      C3692   1.365       .  A
C3683      C3684   1.380       .  A
C3684      C3685   1.406       .  A
C3684      O3690   1.320       .  A
C3685      C3686   1.404       .  A
C3685      H3694   1.082       .  S
C3686      C3689   1.367       .  A
O3687      C3688   1.332       .  A
C3688      C3689   1.392       .  A
C3689      H3695   1.082       .  S
O3690      C3691   1.332       .  A
C3691      C3692   1.392       .  A
C3692      H3696   1.082       .  S
C3697      C3702   1.380       .  A
C3697      C3698   1.406       .  A
C3697      O3703   1.324       .  A
C3698      C3699   1.406       .  A
C3698      H3709   1.082       .  S
C3699      C3708   1.363       .  A
C3699      C3700   1.380       .  A
C3700      C3701   1.403       .  A
C3700      O3706   1.321       .  A
C3701      C3702   1.404       .  A
C3701      H3710   1.082       .  S
C3702      C3705   1.360       .  A
O3703      C3704   1.333       .  A
C3704      C3705   1.392       .  A
C3705      H3711   1.083       .  S
O3706      C3707   1.331       .  A
C3707      C3708   1.393       .  A
C3708      H3712   1.082       .  S
C3713      C3718   1.380       .  A
C3713      C3714   1.408       .  A
C3713      O3719   1.324       .  A
C3714      C3715   1.408       .  A
C3714      H3725   1.082       .  S
C3715      C3724   1.368       .  A
C3715      C3716   1.380       .  A
C3716      C3717   1.404       .  A
C3716      O3722   1.320       .  A
C3717      C3718   1.403       .  A
C3717      H3726   1.082       .  S
C3718      C3721   1.361       .  A
O3719      C3720   1.333       .  A
C3720      C3721   1.391       .  A
C3721      H3727   1.083       .  S
O3722      C3723   1.331       .  A
C3723      C3724   1.393       .  A
C3724      H3728   1.082       .  S
C3729      C3734   1.381       .  A
C3729      C3730   1.404       .  A
C3729      O3735   1.317       .  A
C3730      C3731   1.402       .  A
C3730      H3741   1.082       .  S
C3731      C3740   1.365       .  A
C3731      C3732   1.381       .  A
C3732      C3733   1.399       .  A
C3732      O3738   1.313       .  A
C3733      C3734   1.397       .  A
C3733      H3742   1.082       .  S
C3734      C3737   1.359       .  A
O3735      C3736   1.331       .  A
C3736      C3737   1.388       .  A
C3737      H3743   1.083       .  S
O3738      C3739   1.328       .  A
C3739      C3740   1.391       .  A
C3740      H3744   1.082       .  S
C3745      C3750   1.380   1_554  A
C3745      C3746   1.403       .  A
C3745      O3751   1.318   1_554  A
C3746      C3747   1.401       .  A
C3746      H3757   1.082       .  S
C3747      C3756   1.361       .  A
C3747      C3748   1.380       .  A
C3748      C3749   1.405   1_554  A
C3748      O3754   1.320   1_554  A
C3749      C3750   1.404       .  A
C3749      H3758   1.082       .  S
C3750      C3753   1.365       .  A
O3751      C3752   1.331       .  A
C3752      C3753   1.392       .  A
C3753      H3759   1.082       .  S
O3754      C3755   1.332       .  A
C3755      C3756   1.390   1_556  A
C3756      H3760   1.082       .  S
C3761      C3766   1.380       .  A
C3761      C3762   1.408       .  A
C3761      O3767   1.320       .  A
C3762      C3763   1.405       .  A
C3762      H3773   1.082       .  S
C3763      C3772   1.369       .  A
C3763      C3764   1.380       .  A
C3764      C3765   1.401       .  A
C3764      O3770   1.313       .  A
C3765      C3766   1.399       .  A
C3765      H3774   1.082       .  S
C3766      C3769   1.362       .  A
O3767      C3768   1.333       .  A
C3768      C3769   1.388       .  A
C3769      H3775   1.083       .  S
O3770      C3771   1.329       .  A
C3771      C3772   1.393       .  A
C3772      H3776   1.082       .  S
C3777      C3782   1.380       .  A
C3777      C3778   1.401       .  A
C3777      O3783   1.316       .  A
C3778      C3779   1.400       .  A
C3778      H3789   1.082       .  S
C3779      C3788   1.361       .  A
C3779      C3780   1.380       .  A
C3780      C3781   1.405       .  A
C3780      O3786   1.319       .  A
C3781      C3782   1.404       .  A
C3781      H3790   1.082       .  S
C3782      C3785   1.365       .  A
O3783      C3784   1.330       .  A
C3784      C3785   1.392       .  A
C3785      H3791   1.082       .  S
O3786      C3787   1.332       .  A
C3787      C3788   1.389       .  A
C3788      H3792   1.082       .  S
C3793      C3798   1.381       .  A
C3793      C3794   1.406       .  A
C3793      O3799   1.324       .  A
C3794      C3795   1.407       .  A
C3794      H3805   1.082       .  S
C3795      C3804   1.364       .  A
C3795      C3796   1.381       .  A
C3796      C3797   1.400       .  A
C3796      O3802   1.318       .  A
C3797      C3798   1.400       .  A
C3797      H3806   1.082       .  S
C3798      C3801   1.356       .  A
O3799      C3800   1.332       .  A
C3800      C3801   1.388       .  A
C3801      H3807   1.083       .  S
O3802      C3803   1.329       .  A
C3803      C3804   1.393       .  A
C3804      H3808   1.082       .  S
C3809      C3814   1.380       .  A
C3809      C3810   1.405       .  A
C3809      O3815   1.322       .  A
C3810      C3811   1.405       .  A
C3810      H3821   1.082       .  S
C3811      C3820   1.361       .  A
C3811      C3812   1.381       .  A
C3812      C3813   1.403       .  A
C3812      O3818   1.321       .  A
C3813      C3814   1.403       .  A
C3813      H3822   1.082       .  S
C3814      C3817   1.360       .  A
O3815      C3816   1.332       .  A
C3816      C3817   1.392       .  A
C3817      H3823   1.082       .  S
O3818      C3819   1.330       .  A
C3819      C3820   1.393       .  A
C3820      H3824   1.083       .  S
C3825      C3830   1.380       .  A
C3825      C3826   1.403       .  A
C3825      O3831   1.314       .  A
C3826      C3827   1.400       .  A
C3826      H3837   1.082       .  S
C3827      C3836   1.365       .  A
C3827      C3828   1.380       .  A
C3828      C3829   1.405       .  A
C3828      O3834   1.316       .  A
C3829      C3830   1.403       .  A
C3829      H3838   1.082       .  S
C3830      C3833   1.367       .  A
O3831      C3832   1.331       .  A
C3832      C3833   1.392       .  A
C3833      H3839   1.082       .  S
O3834      C3835   1.332       .  A
C3835      C3836   1.390       .  A
C3836      H3840   1.082       .  S
C3841      C3846   1.380       .  A
C3841      C3842   1.409       .  A
C3841      O3847   1.321       .  A
C3842      C3843   1.407       .  A
C3842      H3853   1.082       .  S
C3843      C3852   1.371       .  A
C3843      C3844   1.380       .  A
C3844      C3845   1.402       .  A
C3844      O3850   1.315       .  A
C3845      C3846   1.400       .  A
C3845      H3854   1.082       .  S
C3846      C3849   1.362       .  A
O3847      C3848   1.333       .  A
C3848      C3849   1.389       .  A
C3849      H3855   1.083       .  S
O3850      C3851   1.330       .  A
C3851      C3852   1.394       .  A
C3852      H3856   1.082       .  S
C3857      C3862   1.381       .  A
C3857      C3858   1.399       .  A
C3857      O3863   1.311       .  A
C3858      C3859   1.396       .  A
C3858      H3869   1.082       .  S
C3859      C3868   1.359       .  A
C3859      C3860   1.380       .  A
C3860      C3861   1.406       .  A
C3860      O3866   1.318       .  A
C3861      C3862   1.404       .  A
C3861      H3870   1.082       .  S
C3862      C3865   1.368       .  A
O3863      C3864   1.328       .  A
C3864      C3865   1.391       .  A
C3865      H3871   1.082       .  S
O3866      C3867   1.331       .  A
C3867      C3868   1.387       .  A
C3868      H3872   1.083       .  S
C3873      C3878   1.381       .  A
C3873      C3874   1.404       .  A
C3873      O3879   1.316       .  A
C3874      C3875   1.402       .  A
C3874      H3885   1.082       .  S
C3875      C3884   1.365       .  A
C3875      C3876   1.381       .  A
C3876      C3877   1.401       .  A
C3876      O3882   1.314       .  A
C3877      C3878   1.398       .  A
C3877      H3886   1.082       .  S
C3878      C3881   1.361       .  A
O3879      C3880   1.331       .  A
C3880      C3881   1.389       .  A
C3881      H3887   1.082       .  S
O3882      C3883   1.329       .  A
C3883      C3884   1.391       .  A
C3884      H3888   1.082       .  S
C3889      C3894   1.380       .  A
C3889      C3890   1.403       .  A
C3889      O3895   1.318       .  A
C3890      C3891   1.402       .  A
C3890      H3901   1.082       .  S
C3891      C3900   1.363       .  A
C3891      C3892   1.380   1_455  A
C3892      C3893   1.406       .  A
C3892      O3898   1.320       .  A
C3893      C3894   1.405   1_655  A
C3893      H3902   1.082       .  S
C3894      C3897   1.366       .  A
O3895      C3896   1.331       .  A
C3896      C3897   1.392       .  A
C3897      H3903   1.082   1_455  S
O3898      C3899   1.332       .  A
C3899      C3900   1.391   1_655  A
C3900      H3904   1.082       .  S
C3905      C3910   1.381       .  A
C3905      C3906   1.403       .  A
C3905      O3911   1.321       .  A
C3906      C3907   1.403       .  A
C3906      H3917   1.082       .  S
C3907      C3916   1.360       .  A
C3907      C3908   1.381       .  A
C3908      C3909   1.401       .  A
C3908      O3914   1.318       .  A
C3909      C3910   1.401       .  A
C3909      H3918   1.082       .  S
C3910      C3913   1.356       .  A
O3911      C3912   1.330       .  A
C3912      C3913   1.391       .  A
C3913      H3919   1.083       .  S
O3914      C3915   1.330       .  A
C3915      C3916   1.391       .  A
C3916      H3920   1.082       .  S
C3921      C3926   1.380       .  A
C3921      C3922   1.399       .  A
C3921      O3927   1.313       .  A
C3922      C3923   1.397       .  A
C3922      H3933   1.082       .  S
C3923      C3932   1.358       .  A
C3923      C3924   1.380       .  A
C3924      C3925   1.409       .  A
C3924      O3930   1.321       .  A
C3925      C3926   1.407       .  A
C3925      H3934   1.082       .  S
C3926      C3929   1.371       .  A
O3927      C3928   1.328       .  A
C3928      C3929   1.393       .  A
C3929      H3935   1.082       .  S
O3930      C3931   1.333       .  A
C3931      C3932   1.387       .  A
C3932      H3936   1.083       .  S
C3937      C3942   1.380       .  A
C3937      C3938   1.405       .  A
C3937      O3943   1.318       .  A
C3938      C3939   1.403       .  A
C3938      H3949   1.082       .  S
C3939      C3948   1.366       .  A
C3939      C3940   1.380       .  A
C3940      C3941   1.400       .  A
C3940      O3946   1.313       .  A
C3941      C3942   1.398       .  A
C3941      H3950   1.082       .  S
C3942      C3945   1.360       .  A
O3943      C3944   1.332       .  A
C3944      C3945   1.388       .  A
C3945      H3951   1.082       .  S
O3946      C3947   1.329       .  A
C3947      C3948   1.391       .  A
C3948      H3952   1.082       .  S
C3953      C3958   1.380       .  A
C3953      C3954   1.403       .  A
C3953      O3959   1.318       .  A
C3954      C3955   1.402       .  A
C3954      H3965   1.082       .  S
C3955      C3964   1.363       .  A
C3955      C3956   1.380       .  A
C3956      C3957   1.408       .  A
C3956      O3962   1.322       .  A
C3957      C3958   1.407       .  A
C3957      H3966   1.082       .  S
C3958      C3961   1.368       .  A
O3959      C3960   1.331       .  A
C3960      C3961   1.394       .  A
C3961      H3967   1.082       .  S
O3962      C3963   1.334       .  A
C3963      C3964   1.391       .  A
C3964      H3968   1.082       .  S
C3969      C3974   1.380       .  A
C3969      C3970   1.411       .  A
C3969      O3975   1.324       .  A
C3970      C3971   1.410       .  A
C3970      H3981   1.082       .  S
C3971      C3980   1.373       .  A
C3971      C3972   1.380       .  A
C3972      C3973   1.397       .  A
C3972      O3978   1.311       .  A
C3973      C3974   1.395       .  A
C3973      H3982   1.082       .  S
C3974      C3977   1.356       .  A
O3975      C3976   1.335       .  A
C3976      C3977   1.386       .  A
C3977      H3983   1.083       .  S
O3978      C3979   1.327       .  A
C3979      C3980   1.395       .  A
C3980      H3984   1.082       .  S
C3985      C3990   1.381       .  A
C3985      C3986   1.399       .  A
C3985      O3991   1.319       .  A
C3986      C3987   1.401       .  A
C3986      H3997   1.082       .  S
C3987      C3996   1.354       .  A
C3987      C3988   1.381       .  A
C3988      C3989   1.402       .  A
C3988      O3994   1.321       .  A
C3989      C3990   1.403       .  A
C3989      H3998   1.082       .  S
C3990      C3993   1.358       .  A
O3991      C3992   1.329       .  A
C3992      C3993   1.391       .  A
C3993      H3999   1.083       .  S
O3994      C3995   1.330       .  A
C3995      C3996   1.391       .  A
C3996      H4000   1.083       .  S
C4001      C4006   1.381       .  A
C4001      C4002   1.406       .  A
C4001      O4007   1.324       .  A
C4002      C4003   1.407       .  A
C4002      H4013   1.082       .  S
C4003      C4012   1.364       .  A
C4003      C4004   1.381       .  A
C4004      C4005   1.398       .  A
C4004      O4010   1.316       .  A
C4005      C4006   1.398       .  A
C4005      H4014   1.082       .  S
C4006      C4009   1.353       .  A
O4007      C4008   1.332       .  A
C4008      C4009   1.387       .  A
C4009      H4015   1.083       .  S
O4010      C4011   1.327       .  A
C4011      C4012   1.393       .  A
C4012      H4016   1.082       .  S
C4017      C4022   1.381       .  A
C4017      C4018   1.404       .  A
C4017      O4023   1.317       .  A
C4018      C4019   1.402       .  A
C4018      H4029   1.082       .  S
C4019      C4028   1.365       .  A
C4019      C4020   1.381       .  A
C4020      C4021   1.400       .  A
C4020      O4026   1.313       .  A
C4021      C4022   1.397       .  A
C4021      H4030   1.082       .  S
C4022      C4025   1.359       .  A
O4023      C4024   1.331       .  A
C4024      C4025   1.387       .  A
C4025      H4031   1.082       .  S
O4026      C4027   1.329       .  A
C4027      C4028   1.391       .  A
C4028      H4032   1.082       .  S
C4033      C4038   1.381       .  A
C4033      C4034   1.402   1_455  A
C4033      O4039   1.322       .  A
C4034      C4035   1.403       .  A
C4034      H4045   1.082       .  S
C4035      C4044   1.358       .  A
C4035      C4036   1.380   1_655  A
C4036      C4037   1.406       .  A
C4036      O4042   1.324       .  A
C4037      C4038   1.407       .  A
C4037      H4046   1.082       .  S
C4038      C4041   1.362       .  A
O4039      C4040   1.330       .  A
C4040      C4041   1.394       .  A
C4041      H4047   1.083       .  S
O4042      C4043   1.333   1_455  A
C4043      C4044   1.392       .  A
C4044      H4048   1.083       .  S
C4049      C4054   1.381       .  A
C4049      C4050   1.406       .  A
C4049      O4055   1.318       .  A
C4050      C4051   1.404       .  A
C4050      H4061   1.082       .  S
C4051      C4060   1.368       .  A
C4051      C4052   1.381       .  A
C4052      C4053   1.398       .  A
C4052      O4058   1.311       .  A
C4053      C4054   1.395       .  A
C4053      H4062   1.082       .  S
C4054      C4057   1.358       .  A
O4055      C4056   1.332       .  A
C4056      C4057   1.386       .  A
C4057      H4063   1.083       .  S
O4058      C4059   1.327       .  A
C4059      C4060   1.391       .  A
C4060      H4064   1.082       .  S
C4065      C4070   1.381       .  A
C4065      C4066   1.402       .  A
C4065      O4071   1.320       .  A
C4066      C4067   1.403       .  A
C4066      H4077   1.082       .  S
C4067      C4076   1.359       .  A
C4067      C4068   1.381       .  A
C4068      C4069   1.403       .  A
C4068      O4074   1.321       .  A
C4069      C4070   1.404       .  A
C4069      H4078   1.082       .  S
C4070      C4073   1.360       .  A
O4071      C4072   1.330       .  A
C4072      C4073   1.392       .  A
C4073      H4079   1.083       .  S
O4074      C4075   1.331       .  A
C4075      C4076   1.391       .  A
C4076      H4080   1.083       .  S
C4081      C4086   1.381       .  A
C4081      C4082   1.404       .  A
C4081      O4087   1.321       .  A
C4082      C4083   1.404       .  A
C4082      H4093   1.082       .  S
C4083      C4092   1.361       .  A
C4083      C4084   1.381       .  A
C4084      C4085   1.403       .  A
C4084      O4090   1.320       .  A
C4085      C4086   1.403       .  A
C4085      H4094   1.082       .  S
C4086      C4089   1.359       .  A
O4087      C4088   1.331       .  A
C4088      C4089   1.392       .  A
C4089      H4095   1.083       .  S
O4090      C4091   1.330       .  A
C4091      C4092   1.392       .  A
C4092      H4096   1.083       .  S
C4097      C4102   1.380       .  A
C4097      C4098   1.409       .  A
C4097      O4103   1.321       .  A
C4098      C4099   1.407       .  A
C4098      H4109   1.082       .  S
C4099      C4108   1.371       .  A
C4099      C4100   1.380       .  A
C4100      C4101   1.400       .  A
C4100      O4106   1.313       .  A
C4101      C4102   1.398       .  A
C4101      H4110   1.082       .  S
C4102      C4105   1.360       .  A
O4103      C4104   1.333       .  A
C4104      C4105   1.388       .  A
C4105      H4111   1.083       .  S
O4106      C4107   1.328       .  A
C4107      C4108   1.393       .  A
C4108      H4112   1.082       .  S
C4113      C4118   1.380       .  A
C4113      C4114   1.407       .  A
C4113      O4119   1.319       .  A
C4114      C4115   1.405       .  A
C4114      H4125   1.082       .  S
C4115      C4124   1.370       .  A
C4115      C4116   1.380       .  A
C4116      C4117   1.401       .  A
C4116      O4122   1.313       .  A
C4117      C4118   1.398       .  A
C4117      H4126   1.082       .  S
C4118      C4121   1.361       .  A
O4119      C4120   1.332       .  A
C4120      C4121   1.389       .  A
C4121      H4127   1.083       .  S
O4122      C4123   1.329       .  A
C4123      C4124   1.391       .  A
C4124      H4128   1.082       .  S
C4129      C4134   1.381       .  A
C4129      C4130   1.399       .  A
C4129      O4135   1.313       .  A
C4130      C4131   1.397       .  A
C4130      H4141   1.082       .  S
C4131      C4140   1.358       .  A
C4131      C4132   1.380       .  A
C4132      C4133   1.407       .  A
C4132      O4138   1.319       .  A
C4133      C4134   1.405       .  A
C4133      H4142   1.082       .  S
C4134      C4137   1.367       .  A
O4135      C4136   1.328       .  A
C4136      C4137   1.393       .  A
C4137      H4143   1.082       .  S
O4138      C4139   1.333       .  A
C4139      C4140   1.388       .  A
C4140      H4144   1.082       .  S
C4145      C4150   1.380       .  A
C4145      C4146   1.407       .  A
C4145      O4151   1.321       .  A
C4146      C4147   1.406       .  A
C4146      H4157   1.082       .  S
C4147      C4156   1.368   1_554  A
C4147      C4148   1.380       .  A
C4148      C4149   1.402       .  A
C4148      O4154   1.316   1_455  A
C4149      C4150   1.401       .  A
C4149      H4158   1.082   1_455  S
C4150      C4153   1.361       .  A
O4151      C4152   1.333       .  A
C4152      C4153   1.391       .  A
C4153      H4159   1.083       .  S
O4154      C4155   1.330   1_554  A
C4155      C4156   1.393   1_655  A
C4156      H4160   1.082       .  S
C4161      C4166   1.381       .  A
C4161      C4162   1.401       .  A
C4161      O4167   1.316       .  A
C4162      C4163   1.400       .  A
C4162      H4173   1.082       .  S
C4163      C4172   1.361       .  A
C4163      C4164   1.381       .  A
C4164      C4165   1.402       .  A
C4164      O4170   1.316       .  A
C4165      C4166   1.401       .  A
C4165      H4174   1.082       .  S
C4166      C4169   1.361       .  A
O4167      C4168   1.329       .  A
C4168      C4169   1.390       .  A
C4169      H4175   1.082       .  S
O4170      C4171   1.330       .  A
C4171      C4172   1.389       .  A
C4172      H4176   1.082       .  S
C4177      C4182   1.381       .  A
C4177      C4178   1.405       .  A
C4177      O4183   1.322       .  A
C4178      C4179   1.405       .  A
C4178      H4189   1.082       .  S
C4179      C4188   1.362       .  A
C4179      C4180   1.381       .  A
C4180      C4181   1.399   1_655  A
C4180      O4186   1.317       .  A
C4181      C4182   1.399   1_455  A
C4181      H4190   1.082       .  S
C4182      C4185   1.355       .  A
O4183      C4184   1.332       .  A
C4184      C4185   1.390       .  A
C4185      H4191   1.083       .  S
O4186      C4187   1.328       .  A
C4187      C4188   1.392       .  A
C4188      H4192   1.083       .  S
C4193      C4198   1.381       .  A
C4193      C4194   1.400       .  A
C4193      O4199   1.314       .  A
C4194      C4195   1.398       .  A
C4194      H4205   1.082       .  S
C4195      C4204   1.359       .  A
C4195      C4196   1.381       .  A
C4196      C4197   1.406       .  A
C4196      O4202   1.319       .  A
C4197      C4198   1.404       .  A
C4197      H4206   1.082       .  S
C4198      C4201   1.366       .  A
O4199      C4200   1.328       .  A
C4200      C4201   1.392       .  A
C4201      H4207   1.082       .  S
O4202      C4203   1.332       .  A
C4203      C4204   1.388       .  A
C4204      H4208   1.083       .  S
C4209      C4214   1.381       .  A
C4209      C4210   1.402       .  A
C4209      O4215   1.320       .  A
C4210      C4211   1.403       .  A
C4210      H4221   1.082       .  S
C4211      C4220   1.359       .  A
C4211      C4212   1.381       .  A
C4212      C4213   1.399       .  A
C4212      O4218   1.318       .  A
C4213      C4214   1.400       .  A
C4213      H4222   1.082       .  S
C4214      C4217   1.355       .  A
O4215      C4216   1.330       .  A
C4216      C4217   1.390       .  A
C4217      H4223   1.083       .  S
O4218      C4219   1.328       .  A
C4219      C4220   1.391       .  A
C4220      H4224   1.083       .  S
C4225      C4230   1.380   1_556  A
C4225      C4226   1.409       .  A
C4225      O4231   1.321       .  A
C4226      C4227   1.407   1_556  A
C4226      H4237   1.082       .  S
C4227      C4236   1.370       .  A
C4227      C4228   1.380       .  A
C4228      C4229   1.404       .  A
C4228      O4234   1.317       .  A
C4229      C4230   1.402       .  A
C4229      H4238   1.082       .  S
C4230      C4233   1.365       .  A
O4231      C4232   1.334       .  A
C4232      C4233   1.391   1_556  A
C4233      H4239   1.082       .  S
O4234      C4235   1.331       .  A
C4235      C4236   1.394       .  A
C4236      H4240   1.082   1_554  S
C4241      C4246   1.381       .  A
C4241      C4242   1.403       .  A
C4241      O4247   1.320       .  A
C4242      C4243   1.403       .  A
C4242      H4253   1.082       .  S
C4243      C4252   1.360       .  A
C4243      C4244   1.381       .  A
C4244      C4245   1.404       .  A
C4244      O4250   1.321       .  A
C4245      C4246   1.404       .  A
C4245      H4254   1.082       .  S
C4246      C4249   1.361       .  A
O4247      C4248   1.330       .  A
C4248      C4249   1.390       .  A
C4249      H4255   1.083       .  S
O4250      C4251   1.331       .  A
C4251      C4252   1.392       .  A
C4252      H4256   1.083       .  S
C4257      C4262   1.381       .  A
C4257      C4258   1.401       .  A
C4257      O4263   1.317       .  A
C4258      C4259   1.401       .  A
C4258      H4269   1.082       .  S
C4259      C4268   1.359       .  A
C4259      C4260   1.381       .  A
C4260      C4261   1.401       .  A
C4260      O4266   1.318       .  A
C4261      C4262   1.401       .  A
C4261      H4270   1.082       .  S
C4262      C4265   1.359       .  A
O4263      C4264   1.329       .  A
C4264      C4265   1.390       .  A
C4265      H4271   1.083       .  S
O4266      C4267   1.330       .  A
C4267      C4268   1.390       .  A
C4268      H4272   1.083       .  S
C4273      C4278   1.380   1_554  A
C4273      C4274   1.401       .  A
C4273      O4279   1.320       .  A
C4274      C4275   1.402       .  A
C4274      H4285   1.082       .  S
C4275      C4284   1.357       .  A
C4275      C4276   1.380       .  A
C4276      C4277   1.408   1_554  A
C4276      O4282   1.326       .  A
C4277      C4278   1.408       .  A
C4277      H4286   1.082       .  S
C4278      C4281   1.365       .  A
O4279      C4280   1.330   1_554  A
C4280      C4281   1.394       .  A
C4281      H4287   1.082       .  S
O4282      C4283   1.333       .  A
C4283      C4284   1.392       .  A
C4284      H4288   1.083       .  S
C4289      C4294   1.380       .  A
C4289      C4290   1.403       .  A
C4289      O4295   1.317       .  A
C4290      C4291   1.401       .  A
C4290      H4301   1.082       .  S
C4291      C4300   1.364       .  A
C4291      C4292   1.380       .  A
C4292      C4293   1.405       .  A
C4292      O4298   1.318       .  A
C4293      C4294   1.403       .  A
C4293      H4302   1.082       .  S
C4294      C4297   1.365       .  A
O4295      C4296   1.330       .  A
C4296      C4297   1.391       .  A
C4297      H4303   1.082       .  S
O4298      C4299   1.331       .  A
C4299      C4300   1.389       .  A
C4300      H4304   1.082       .  S
C4305      C4310   1.381       .  A
C4305      C4306   1.401       .  A
C4305      O4311   1.318       .  A
C4306      C4307   1.401       .  A
C4306      H4317   1.082       .  S
C4307      C4316   1.359       .  A
C4307      C4308   1.381       .  A
C4308      C4309   1.401       .  A
C4308      O4314   1.318       .  A
C4309      C4310   1.401       .  A
C4309      H4318   1.082       .  S
C4310      C4313   1.359       .  A
O4311      C4312   1.329       .  A
C4312      C4313   1.390       .  A
C4313      H4319   1.083       .  S
O4314      C4315   1.330       .  A
C4315      C4316   1.390       .  A
C4316      H4320   1.083       .  S
C4321      C4326   1.381       .  A
C4321      C4322   1.403   1_455  A
C4321      O4327   1.321       .  A
C4322      C4323   1.403       .  A
C4322      H4333   1.082       .  S
C4323      C4332   1.359       .  A
C4323      C4324   1.380   1_655  A
C4324      C4325   1.407       .  A
C4324      O4330   1.325       .  A
C4325      C4326   1.407       .  A
C4325      H4334   1.082       .  S
C4326      C4329   1.364       .  A
O4327      C4328   1.331       .  A
C4328      C4329   1.393       .  A
C4329      H4335   1.082       .  S
O4330      C4331   1.333   1_455  A
C4331      C4332   1.393       .  A
C4332      H4336   1.083       .  S
C4337      C4342   1.381       .  A
C4337      C4338   1.403       .  A
C4337      O4343   1.320       .  A
C4338      C4339   1.403       .  A
C4338      H4349   1.082       .  S
C4339      C4348   1.359       .  A
C4339      C4340   1.381       .  A
C4340      C4341   1.403       .  A
C4340      O4346   1.321       .  A
C4341      C4342   1.403       .  A
C4341      H4350   1.082       .  S
C4342      C4345   1.360       .  A
O4343      C4344   1.331       .  A
C4344      C4345   1.391       .  A
C4345      H4351   1.082       .  S
O4346      C4347   1.330       .  A
C4347      C4348   1.391       .  A
C4348      H4352   1.083       .  S
C4353      C4358   1.382       .  A
C4353      C4354   1.397       .  A
C4353      O4359   1.315       .  A
C4354      C4355   1.398       .  A
C4354      H4365   1.082       .  S
C4355      C4364   1.353       .  A
C4355      C4356   1.381       .  A
C4356      C4357   1.402       .  A
C4356      O4362   1.319       .  A
C4357      C4358   1.402       .  A
C4357      H4366   1.082       .  S
C4358      C4361   1.358       .  A
O4359      C4360   1.327       .  A
C4360      C4361   1.390       .  A
C4361      H4367   1.083       .  S
O4362      C4363   1.330       .  A
C4363      C4364   1.389       .  A
C4364      H4368   1.083       .  S
C4369      C4374   1.380       .  A
C4369      C4370   1.408       .  A
C4369      O4375   1.321       .  A
C4370      C4371   1.406       .  A
C4370      H4381   1.082       .  S
C4371      C4380   1.369       .  A
C4371      C4372   1.380       .  A
C4372      C4373   1.404       .  A
C4372      O4378   1.318       .  A
C4373      C4374   1.402       .  A
C4373      H4382   1.082       .  S
C4374      C4377   1.364       .  A
O4375      C4376   1.333       .  A
C4376      C4377   1.391       .  A
C4377      H4383   1.082       .  S
O4378      C4379   1.331       .  A
C4379      C4380   1.393       .  A
C4380      H4384   1.082       .  S
C4385      C4390   1.381       .  A
C4385      C4386   1.402       .  A
C4385      O4391   1.315       .  A
C4386      C4387   1.400       .  A
C4386      H4397   1.082       .  S
C4387      C4396   1.362       .  A
C4387      C4388   1.381       .  A
C4388      C4389   1.404       .  A
C4388      O4394   1.318       .  A
C4389      C4390   1.402       .  A
C4389      H4398   1.082       .  S
C4390      C4393   1.364       .  A
O4391      C4392   1.330       .  A
C4392      C4393   1.390       .  A
C4393      H4399   1.082       .  S
O4394      C4395   1.331       .  A
C4395      C4396   1.390       .  A
C4396      H4400   1.083       .  S
C4401      C4406   1.381       .  A
C4401      C4402   1.402       .  A
C4401      O4407   1.318       .  A
C4402      C4403   1.401       .  A
C4402      H4413   1.082       .  S
C4403      C4412   1.360       .  A
C4403      C4404   1.381       .  A
C4404      C4405   1.404       .  A
C4404      O4410   1.319       .  A
C4405      C4406   1.403       .  A
C4405      H4414   1.082       .  S
C4406      C4409   1.363       .  A
O4407      C4408   1.330       .  A
C4408      C4409   1.391       .  A
C4409      H4415   1.082       .  S
O4410      C4411   1.331       .  A
C4411      C4412   1.389       .  A
C4412      H4416   1.083       .  S
