geometry optimzed in LAMMPS
_audit_creation_date              2020-12-01 
_audit_creation_method            'lammps2cif' 
_symmetry_space_group_name_H-M    'P1' 
_symmetry_Int_Tables_number       1 
_symmetry_cell_setting            triclinic 
loop_ 
_symmetry_equiv_pos_as_xyz 
  x,y,z 
_cell_length_a                    50.05599565 
_cell_length_b                    56.280948551571235 
_cell_length_c                    53.5104022229913 
_cell_angle_alpha                 90.24350882584588 
_cell_angle_beta                  89.70426796759284 
_cell_angle_gamma                 89.55597967343346 
loop_ 
_atom_site_label 
_atom_site_type_symbol 
_atom_site_fract_x 
_atom_site_fract_y 
_atom_site_fract_z 
_atom_site_charge 
C1          C  0.08178788  0.68059082  0.93695942     0.80400
N2          N  0.07370894  0.68393904  0.91321968    -0.77900
C3          C  0.05001297  0.67572061  0.90494341     0.82900
N4          N  0.03387430  0.66335471  0.92088913    -0.77800
C5          C  0.04193509  0.65930995  0.94491671     0.83000
N6          N  0.06569363  0.66842388  0.95289749    -0.79500
C7          C  0.86883528  0.68263598  0.93568594     0.80400
N8          N  0.87626021  0.68411751  0.91148692    -0.77900
C9          C  0.89936853  0.67449485  0.90298122     0.82900
N10         N  0.91581223  0.66263901  0.91921243    -0.77800
C11         C  0.90832649  0.66030095  0.94381849     0.83000
N12         N  0.88502175  0.67079318  0.95189597    -0.79500
C13         C  0.89792937  0.67455193  0.15211051     0.80400
N14         N  0.87429398  0.68314632  0.14382856    -0.77900
C15         C  0.86699757  0.68096313  0.11966861     0.82900
N16         N  0.88376779  0.66953541  0.10340855    -0.77800
C17         C  0.90750955  0.66005140  0.11131785     0.83000
N18         N  0.91482894  0.66297997  0.13580374    -0.79500
C19         C  0.04881080  0.67300551  0.15303333     0.80400
N20         N  0.03259963  0.66153777  0.13642788    -0.77900
C21         C  0.04056234  0.65880992  0.11204458     0.82900
N22         N  0.06426725  0.66846664  0.10447084    -0.77800
C23         C  0.08040199  0.67989711  0.12100054     0.83000
N24         N  0.07241651  0.68182497  0.14509222    -0.79500
C25         C  0.90445207  0.53243869  0.15155973     0.80400
N26         N  0.91970673  0.54537494  0.13527230    -0.77900
C27         C  0.91116114  0.54863213  0.11114586     0.82900
N28         N  0.88782264  0.53831513  0.10364310    -0.77800
C29         C  0.87275688  0.52540838  0.11987386     0.83000
N30         N  0.88139406  0.52281701  0.14358052    -0.79500
C31         C  0.87307169  0.52548895  0.93562849     0.80400
N32         N  0.87964748  0.52467854  0.91118528    -0.77900
C33         C  0.90160465  0.53556147  0.90208639     0.82900
N34         N  0.91774443  0.54798248  0.91811301    -0.82300
C35         C  0.91116081  0.54938941  0.94308575     0.83000
N36         N  0.88897867  0.53777150  0.95158276    -0.79500
C37         C  0.08295883  0.53139526  0.93581285     0.80400
N38         N  0.07456165  0.52625675  0.91250584    -0.77900
C39         C  0.05014504  0.53311185  0.90440408     0.82900
N40         N  0.03343618  0.54564092  0.92005345    -0.77800
C41         C  0.04188105  0.55145425  0.94359650     0.83000
N42         N  0.06639055  0.54375727  0.95139633    -0.79500
C43         C  0.04143192  0.51981353  0.14128186     0.80400
N44         N  0.06793022  0.51750260  0.13700321    -0.77900
C45         C  0.08049386  0.53008425  0.11912319     0.82900
N46         N  0.06587781  0.54529557  0.10483917    -0.77800
C47         C  0.03914131  0.54860937  0.10933852     0.83000
N48         N  0.02681582  0.53559512  0.12755309    -0.79500
O49         O  0.02983582  0.65078265  0.98639582    -0.75100
O50         O  0.00618970  0.63251365  0.95539531    -0.54000
C51         C  0.02470743  0.64664157  0.96321574     0.78700
O52         O  0.02971468  0.55946053  0.06821981    -0.59700
O53         O  0.00456205  0.57701798  0.09909665    -0.52700
C54         C  0.02330841  0.56275926  0.09128793     0.70700
O55         O  0.03027004  0.56061650  0.98503081    -0.74200
O56         O  0.00582001  0.57858416  0.95438996    -0.54800
C57         C  0.02459210  0.56440185  0.96193163     0.76700
O58         O  0.02881302  0.65123236  0.07004392    -0.59400
O59         O  0.00512569  0.63199099  0.10039262    -0.52500
C60         C  0.02350474  0.64657229  0.09313327     0.73300
Zr61       Zr  0.01305603  0.64104616  0.02801674     2.54700
O62         O  0.06153826  0.64433210  0.02850333    -0.79900
O63         O  0.00669016  0.68398141  0.02863897    -0.93400
Zr64       Zr  0.01491052  0.57145598  0.02687675     2.64700
O65         O  0.06350911  0.57383396  0.02602126    -0.98300
O66         O  0.01414596  0.52821687  0.02655236    -0.80400
O67         O  0.01430715  0.60641655  0.00249257    -0.83700
O68         O  0.01424446  0.60598275  0.05235886    -2.18400
O69         O  0.91959019  0.65154061  0.06951622    -0.67100
O70         O  0.94318715  0.63252923  0.10009398    -0.51700
C71         C  0.92484579  0.64726022  0.09265684     0.71700
O72         O  0.92208577  0.55873236  0.98490825    -0.60000
O73         O  0.94519407  0.57807723  0.95426225    -0.52000
C74         C  0.92744729  0.56297503  0.96171296     0.73500
O75         O  0.92178464  0.55809997  0.06914477    -0.71400
O76         O  0.94475719  0.57742828  0.09987207    -0.50100
C77         C  0.92712666  0.56228592  0.09235475     0.74800
O78         O  0.91954006  0.65131065  0.98566085    -0.66700
O79         O  0.94384724  0.63277330  0.95486706    -0.53900
C80         C  0.92521436  0.64727457  0.96244694     0.73200
Zr81       Zr  0.93482438  0.64005243  0.02752702     2.77500
O82         O  0.88618141  0.63964864  0.02708527    -0.97500
O83         O  0.93826137  0.68318475  0.02767194    -0.78300
Zr84       Zr  0.93657093  0.56996484  0.02709540     2.70100
O85         O  0.88804180  0.56747162  0.02697833    -0.79600
O86         O  0.94382682  0.52713951  0.02644075    -0.98700
Zr87       Zr  0.97490041  0.60568349  0.97708817     2.21500
Zr88       Zr  0.97441784  0.60533574  0.07760542     2.11100
O89         O  0.93506491  0.60495109  0.05205192    -2.47300
O90         O  0.93532776  0.60506019  0.00255285    -0.79400
O91         O  0.97367529  0.64082199  0.05288479    -0.71600
O92         O  0.97581793  0.57033667  0.00205084    -2.32500
O93         O  0.97417045  0.64098693  0.00261294    -2.28700
O94         O  0.97565194  0.57028416  0.05196340    -0.73300
H95         H  0.02996001  0.60596385  0.06269741     0.78700
H96         H  0.97628742  0.55630259  0.99152965     0.79800
H97         H  0.91919382  0.60471643  0.06239819     0.82000
H98         H  0.97395410  0.65494637  0.99222447     0.79600
H99         H  0.03316482  0.52340414  0.02511751     0.42600
H100        H  0.95594587  0.52404677  0.04064703     0.41600
H101        H  0.88432567  0.55024242  0.02588956     0.41300
H102        H  0.88101732  0.62961192  0.04144625     0.39200
H103        H  0.94999473  0.68683546  0.04200377     0.42400
H104        H  0.99895519  0.68786325  0.01215307     0.37100
H105        H  0.06803579  0.63054002  0.01859272     0.43300
H106        H  0.06824241  0.58330682  0.04096528     0.39700
H107        H  0.88076667  0.65596173  0.03205651     0.44600
H108        H  0.02503258  0.69041803  0.02791956     0.43300
H109        H  0.06978200  0.55752749  0.02984783     0.43400
H110        H  0.92650054  0.52039408  0.03173992     0.43800
C111        C  0.54888976  0.01506897  0.12697418     0.80400
N112        N  0.53897272  0.03074530  0.11008368    -0.77900
C113        C  0.52967348  0.02312570  0.08753431     0.82900
N114        N  0.53137485  0.99945769  0.08155118    -0.77800
C115        C  0.54144661  0.98369646  0.09857005     0.83000
N116        N  0.54995941  0.99175774  0.12097939    -0.79500
C117        C  0.54799851  0.01396062  0.91761678     0.80400
N118        N  0.53686826  0.03030514  0.93345016    -0.77900
C119        C  0.53027634  0.02415129  0.95741034     0.82900
N120        N  0.53556671  0.00167558  0.96564981    -0.77800
C121        C  0.54665741  0.98544841  0.94969318     0.83000
N122        N  0.55263969  0.99183246  0.92612759    -0.79500
C123        C  0.54714279  0.22236498  0.95497720     0.80400
N124        N  0.53394435  0.20676207  0.97015276    -0.77900
C125        C  0.53237534  0.18331460  0.96333887     0.82900
N126        N  0.54467230  0.17574231  0.94191522    -0.77800
C127        C  0.55755548  0.19126718  0.92684875     0.83000
N128        N  0.55858452  0.21434769  0.93355698    -0.79500
C129        C  0.55214058  0.22289374  0.08580318     0.80400
N130        N  0.56506702  0.21565763  0.10651549    -0.77900
C131        C  0.56424245  0.19291270  0.11426386     0.82900
N132        N  0.54995883  0.17691600  0.10080565    -0.77800
C133        C  0.53649314  0.18368099  0.07981481     0.83000
N134        N  0.53776826  0.20688911  0.07211402    -0.79500
C135        C  0.39372806  0.21866845  0.95219809     0.80400
N136        N  0.38648291  0.21058107  0.92939262    -0.77900
C137        C  0.39144911  0.18801785  0.92210075     0.82900
N138        N  0.40373427  0.17294298  0.93817044    -0.77800
C139        C  0.41179099  0.18065103  0.96113553     0.83000
N140        N  0.40650519  0.20359670  0.96830653    -0.79500
C141        C  0.40537628  0.01379755  0.91476498     0.80400
N142        N  0.40157596  0.99105403  0.92190883    -0.77900
C143        C  0.40715892  0.98382974  0.94543659     0.82900
N144        N  0.41725931  0.99975725  0.96224805    -0.77800
C145        C  0.42181294  0.02272546  0.95524853     0.83000
N146        N  0.41506882  0.02973300  0.93163399    -0.79500
C147        C  0.40415736  0.01233991  0.12892101     0.80400
N148        N  0.40239267  0.98933760  0.12189724    -0.77900
C149        C  0.40988940  0.98194363  0.09881294     0.82900
N150        N  0.41953184  0.99808527  0.08205393    -0.77800
C151        C  0.42195163  0.02142749  0.08894811     0.83000
N152        N  0.41373014  0.02841664  0.11225599    -0.79500
C153        C  0.39245808  0.21897660  0.09491170     0.80400
N154        N  0.38298770  0.21061201  0.11680786    -0.77900
C155        C  0.38672838  0.18777955  0.12365387     0.82900
N156        N  0.40041712  0.17295888  0.10802414    -0.77800
C157        C  0.41050914  0.18088600  0.08585338     0.83000
N158        N  0.40634102  0.20410976  0.07911102    -0.79500
O159        O  0.52235960  0.06300328  0.07558174    -0.75100
O160        O  0.50351523  0.03382685  0.05174894    -0.54000
C161        C  0.51790729  0.04097387  0.07024829     0.78700
O162        O  0.42083653  0.14143224  0.07450253    -0.59700
O163        O  0.44134995  0.17093621  0.05253473    -0.52700
C164        C  0.42512568  0.16351735  0.06963964     0.70700
O165        O  0.42744731  0.06151526  0.07714046    -0.74200
O166        O  0.44675426  0.03292617  0.05239032    -0.54800
C167        C  0.43266185  0.03963479  0.07150154     0.76700
O168        O  0.52671560  0.14345054  0.07102247    -0.59400
O169        O  0.50310630  0.17195119  0.05005640    -0.52500
C170        C  0.52112324  0.16533591  0.06584946     0.73300
Zr171      Zr  0.51313376  0.10300247  0.05942061     2.54700
O172        O  0.51492589  0.10599367  0.10476705    -0.79900
O173        O  0.56148926  0.09994183  0.05518137    -0.93400
Zr174      Zr  0.43427058  0.10159317  0.06047488     2.64700
O175        O  0.43242421  0.10147508  0.10599404    -0.98300
O176        O  0.38597020  0.09879592  0.05662926    -0.80400
O177        O  0.47436778  0.07918068  0.05967960    -0.83700
O178        O  0.47301143  0.12580138  0.06059730    -2.18400
O179        O  0.52382683  0.14353320  0.97349509    -0.67100
O180        O  0.50130206  0.17219813  0.99561335    -0.51700
C181        C  0.51827750  0.16540659  0.97873961     0.71700
O182        O  0.42736407  0.06256808  0.96826780    -0.60000
O183        O  0.44659647  0.03363187  0.99212064    -0.52000
C184        C  0.43258409  0.04062572  0.97320195     0.73500
O185        O  0.42115339  0.14138782  0.97270757    -0.71400
O186        O  0.44126113  0.17084448  0.99509892    -0.50100
C187        C  0.42549710  0.16340952  0.97771468     0.74800
O188        O  0.52150674  0.06396628  0.96849622    -0.66700
O189        O  0.50429128  0.03478550  0.99324990    -0.53900
C190        C  0.51793878  0.04202683  0.97425414     0.73200
Zr191      Zr  0.51256999  0.10318560  0.98644813     2.77500
O192        O  0.51951500  0.10370207  0.94133812    -0.97500
O193        O  0.56044626  0.10152793  0.99411070    -0.78300
Zr194      Zr  0.43345672  0.10182602  0.98723763     2.70100
O195        O  0.42596108  0.10367721  0.94238378    -0.79600
O196        O  0.38564529  0.09882243  0.99508062    -0.98700
Zr197      Zr  0.47434939  0.05529141  0.02265255     2.21500
Zr198      Zr  0.47180573  0.14977181  0.02357104     2.11100
O199        O  0.47234629  0.12579906  0.98629927    -2.47300
O200        O  0.47364665  0.07950273  0.98613059    -0.79400
O201        O  0.51242077  0.12692823  0.02306285    -0.71600
O202        O  0.43347763  0.07777211  0.02361754    -2.32500
O203        O  0.51402123  0.07908607  0.02268383    -2.28700
O204        O  0.43256939  0.12557055  0.02403156    -0.73300
H205        H  0.47304658  0.13572531  0.07538370     0.78700
H206        H  0.41821925  0.06737589  0.02372393     0.79800
H207        H  0.47213577  0.13561690  0.97153003     0.82000
H208        H  0.52982769  0.06912907  0.02244259     0.79600
H209        H  0.37933052  0.09843799  0.07408401     0.42600
H210        H  0.37850764  0.11496027  0.99180226     0.41600
H211        H  0.44391921  0.10128785  0.93489500     0.41300
H212        H  0.50687866  0.11587406  0.93504488     0.39200
H213        H  0.56732623  0.08934768  0.98227379     0.42400
H214        H  0.56822336  0.10184248  0.07243588     0.37100
H215        H  0.49670404  0.10178340  0.11040691     0.43300
H216        H  0.44362003  0.11500347  0.11128090     0.39700
H217        H  0.53743619  0.11068776  0.93890995     0.44600
H218        H  0.56676620  0.11474577  0.04659972     0.43300
H219        H  0.41391857  0.10639660  0.11023869     0.43400
H220        H  0.37892060  0.08903097  0.98107788     0.43800
C221        C  0.08564958  0.01210466  0.60269375     0.80400
N222        N  0.07009157  0.02711147  0.58903987    -0.77900
C223        C  0.04412572  0.02147181  0.58371033     0.82900
N224        N  0.03336930  0.00109711  0.59335170    -0.77800
C225        C  0.04895026  0.98647182  0.60761367     0.83000
N226        N  0.07470721  0.99206288  0.61150745    -0.79500
C227        C  0.86712364  0.01378312  0.59889029     0.80400
N228        N  0.88448078  0.02954640  0.58868685    -0.77900
C229        C  0.90938969  0.02235331  0.58106868     0.82900
N230        N  0.91720881  0.99918540  0.58477585    -0.77800
C231        C  0.89974053  0.98350091  0.59540798     0.83000
N232        N  0.87507990  0.99108044  0.60209481    -0.79500
C233        C  0.90847348  0.22144260  0.60213504     0.80400
N234        N  0.88683840  0.21339434  0.61451207    -0.77900
C235        C  0.87968640  0.19036998  0.61377176     0.82900
N236        N  0.89452101  0.17497711  0.59968602    -0.77800
C237        C  0.91636512  0.18250376  0.58658518     0.83000
N238        N  0.92370323  0.20593847  0.58814964    -0.79500
C239        C  0.05097232  0.21565638  0.60713348     0.80400
N240        N  0.03465529  0.20098975  0.59373666    -0.77900
C241        C  0.04490989  0.18043482  0.58355977     0.82900
N242        N  0.07115339  0.17473375  0.58726464    -0.77800
C243        C  0.08751335  0.18981722  0.59972467     0.83000
N244        N  0.07712022  0.20996672  0.60952810    -0.79500
C245        C  0.90936899  0.22213804  0.45356154     0.80400
N246        N  0.92406334  0.20664353  0.46781682    -0.77900
C247        C  0.91966054  0.18260940  0.46574588     0.82900
N248        N  0.90098404  0.17462098  0.44921472    -0.77800
C249        C  0.88669972  0.19000137  0.43492140     0.83000
N250        N  0.89110830  0.21350659  0.43744245    -0.79500
C251        C  0.87131345  0.01659628  0.44769400     0.80400
N252        N  0.88850400  0.03149401  0.45940439    -0.77900
C253        C  0.91194124  0.02316794  0.46919280     0.82900
N254        N  0.91865832  0.99963664  0.46599510    -0.77800
C255        C  0.90135911  0.98476623  0.45386381     0.83000
N256        N  0.87799511  0.99346589  0.44513080    -0.79500
C257        C  0.08068979  0.01023239  0.44522936     0.80400
N258        N  0.07306525  0.98724242  0.44458253    -0.77900
C259        C  0.05044505  0.97984620  0.45601513     0.82900
N260        N  0.03485795  0.99599986  0.46874460    -0.77800
C261        C  0.04249852  0.01932205  0.47000983     0.83000
N262        N  0.06525338  0.02619628  0.45797530    -0.79500
C263        C  0.05288761  0.21685788  0.45262970     0.80400
N264        N  0.03715670  0.20124342  0.46536554    -0.77900
C265        C  0.04692221  0.17924792  0.47137396     0.82900
N266        N  0.07213448  0.17288470  0.46388221    -0.77800
C267        C  0.08792631  0.18862053  0.45156495     0.83000
N268        N  0.07799342  0.21030337  0.44610029    -0.79500
O269        O  0.03261399  0.05955936  0.47925268    -0.75100
O270        O  0.00799028  0.03120808  0.49910111    -0.54000
C271        C  0.02648697  0.03771656  0.48370005     0.78700
O272        O  0.03297135  0.14075762  0.57548886    -0.59700
O273        O  0.00948226  0.17002808  0.55559740    -0.52700
C274        C  0.02772250  0.16278000  0.57082500     0.70700
O275        O  0.03333004  0.06113330  0.57461327    -0.74200
O276        O  0.00837859  0.03236407  0.55574187    -0.54800
C277        C  0.02735169  0.03927157  0.57040672     0.76700
O278        O  0.03575905  0.13949226  0.48011186    -0.59400
O279        O  0.01102452  0.16890043  0.49901458    -0.52500
C280        C  0.03000141  0.16152883  0.48434964     0.73300
Zr281      Zr  0.01881154  0.10012516  0.49091566     2.54700
O282        O  0.06738337  0.09764004  0.49138121    -0.79900
O283        O  0.01635143  0.10170573  0.44552850    -0.93400
Zr284      Zr  0.01713160  0.10089188  0.56447801     2.64700
O285        O  0.06566014  0.09921066  0.56799490    -0.98300
O286        O  0.00973300  0.10093532  0.60948185    -0.80400
O287        O  0.01785954  0.07698977  0.52777700    -0.83700
O288        O  0.01884142  0.12398461  0.52762275    -2.18400
O289        O  0.92877110  0.14259982  0.47626703    -0.67100
O290        O  0.95106946  0.17126520  0.49793525    -0.51700
C291        C  0.93430819  0.16454254  0.48104735     0.71700
O292        O  0.92179550  0.06222352  0.57342784    -0.60000
O293        O  0.94644026  0.03277951  0.55456006    -0.52000
C294        C  0.92728008  0.04011254  0.56901436     0.73500
O295        O  0.92590558  0.14253898  0.57618131    -0.71400
O296        O  0.94990419  0.17111110  0.55599309    -0.50100
C297        C  0.93194630  0.16443011  0.57191083     0.74800
O298        O  0.92465066  0.06254388  0.47809189    -0.66700
O299        O  0.94732907  0.03291106  0.49822086    -0.53900
C300        C  0.92943436  0.04041638  0.48264248     0.73200
Zr301      Zr  0.94018426  0.10215817  0.48997763     2.77500
O302        O  0.89156947  0.10344033  0.49210434    -0.97500
O303        O  0.94160563  0.10136783  0.44450826    -0.78300
Zr304      Zr  0.93872491  0.10204967  0.56349326     2.70100
O305        O  0.89011969  0.10391894  0.56298472    -0.79600
O306        O  0.94124265  0.10056683  0.60890289    -0.98700
Zr307      Zr  0.97793410  0.05376697  0.52709205     2.21500
Zr308      Zr  0.97949788  0.14871808  0.52715180     2.11100
O309        O  0.93931446  0.12575133  0.52680119    -2.47300
O310        O  0.93883264  0.07856749  0.52660437    -0.79400
O311        O  0.98001886  0.12472362  0.49002203    -0.71600
O312        O  0.97764540  0.07765424  0.56443131    -2.32500
O313        O  0.97899541  0.07751846  0.48990418    -2.28700
O314        O  0.97823810  0.12518352  0.56437269    -0.73300
H315        H  0.03480663  0.13346335  0.52783975     0.78700
H316        H  0.97724461  0.06771699  0.57907784     0.79800
H317        H  0.92382464  0.13611886  0.52664833     0.82000
H318        H  0.97899883  0.06749852  0.47519146     0.79600
H319        H  0.02789007  0.10045804  0.61672002     0.42600
H320        H  0.94805841  0.11634031  0.61392877     0.41600
H321        H  0.88472588  0.10259569  0.58075178     0.41300
H322        H  0.88723211  0.11675432  0.50360971     0.39200
H323        H  0.95700252  0.11147559  0.44006043     0.42400
H324        H  0.00458010  0.08838545  0.44080947     0.37100
H325        H  0.07174395  0.09206012  0.50841471     0.43300
H326        H  0.07224404  0.11346256  0.55917952     0.39700
H327        H  0.88595885  0.10915289  0.47544790     0.44600
H328        H  0.03435501  0.09667642  0.43974535     0.43300
H329        H  0.06932275  0.10233457  0.58587256     0.43400
H330        H  0.92238656  0.10061150  0.61458670     0.43800
C331        C  0.93960030  0.43525178  0.29353786    -0.10600
C332        C  0.96306206  0.43800232  0.27986349    -0.04500
C333        C  0.98463772  0.42255807  0.28173808    -0.10600
C334        C  0.98387338  0.40390748  0.29924537     0.10300
C335        C  0.96039308  0.40073717  0.31407823    -0.02400
C336        C  0.93787116  0.41625130  0.31105865     0.10100
C337        C  0.91489165  0.41231535  0.32569982    -0.12400
C338        C  0.91396124  0.39364102  0.34314261    -0.12400
C339        C  0.93589141  0.37814992  0.34634738     0.10100
C340        C  0.95940629  0.38179648  0.33163269    -0.02400
C341        C  0.00585998  0.38862143  0.30246559    -0.12500
C342        C  0.00517450  0.37050847  0.32018429    -0.12500
C343        C  0.98221970  0.36671951  0.33474586     0.10300
C344        C  0.98118574  0.34808155  0.35228046    -0.10600
C345        C  0.95771920  0.34401174  0.36529927    -0.04500
C346        C  0.93547338  0.35889690  0.36359635    -0.10600
H347        H  0.89757847  0.42381259  0.32381063     0.07600
H348        H  0.89591075  0.39126702  0.35406188     0.07600
H349        H  0.02389034  0.39082925  0.29147108     0.07800
H350        H  0.02263405  0.35920550  0.32219842     0.07800
H351        H  0.96402529  0.45202453  0.26594579     0.04200
H352        H  0.95734973  0.32939866  0.37854768     0.04200
C353        C  0.30854442  0.11947787  0.27610068    -0.10600
C354        C  0.31958521  0.09809089  0.26788779    -0.04500
C355        C  0.31075509  0.07635704  0.27682433    -0.10600
C356        C  0.29153579  0.07584524  0.29626240     0.10300
C357        C  0.28204849  0.09771377  0.30661891    -0.02400
C358        C  0.29032397  0.11969020  0.29624797     0.10100
C359        C  0.28021701  0.14108005  0.30620669    -0.12400
C360        C  0.26282498  0.14100555  0.32668736    -0.12400
C361        C  0.25438852  0.11951052  0.33728155     0.10100
C362        C  0.26358874  0.09761624  0.32677199    -0.02400
C363        C  0.28150668  0.05436093  0.30551836    -0.12500
C364        C  0.26275610  0.05427168  0.32497302    -0.12500
C365        C  0.25385950  0.07564756  0.33600313     0.10300
C366        C  0.23544537  0.07585489  0.35607273    -0.10600
C367        C  0.22804685  0.09736999  0.36714041    -0.04500
C368        C  0.23690039  0.11910214  0.35808651    -0.10600
H369        H  0.28626367  0.15801010  0.29856733     0.07600
H370        H  0.25600241  0.15790232  0.33418689     0.07600
H371        H  0.28822509  0.03751006  0.29781343     0.07800
H372        H  0.25560080  0.03733082  0.33167232     0.07800
H373        H  0.33354352  0.09827980  0.25224516     0.04200
H374        H  0.21344408  0.09728438  0.38224116     0.04200
C375        C  0.23030996  0.44026307  0.01209608    -0.10600
C376        C  0.22450160  0.45213785  0.03429633    -0.04500
C377        C  0.23496969  0.44507021  0.05718357    -0.10600
C378        C  0.25264897  0.42528529  0.05807537     0.10300
C379        C  0.25963318  0.41331915  0.03540525    -0.02400
C380        C  0.24804545  0.42056611  0.01232798     0.10100
C381        C  0.25453601  0.40801937  0.99034216    -0.12400
C382        C  0.27262056  0.38896318  0.99074708    -0.12400
C383        C  0.28481392  0.38191942  0.01313774     0.10100
C384        C  0.27805651  0.39397341  0.03581688    -0.02400
C385        C  0.26362908  0.41724878  0.08069308    -0.12500
C386        C  0.28173856  0.39813820  0.08110904    -0.12500
C387        C  0.28948684  0.38650873  0.05891775     0.10300
C388        C  0.30854815  0.36772083  0.05880200    -0.10600
C389        C  0.31550009  0.35695357  0.03621670    -0.04500
C390        C  0.30366890  0.36312257  0.01374018    -0.10600
H391        H  0.24583402  0.41306344  0.97263451     0.07600
H392        H  0.27729180  0.37991658  0.97334526     0.07600
H393        H  0.25849445  0.42592965  0.09818479     0.07800
H394        H  0.28997949  0.39270214  0.09888187     0.07800
H395        H  0.21026635  0.46681941  0.03388044     0.04200
H396        H  0.32961402  0.34215733  0.03630194     0.04200
C397        C  0.65957501  0.08262912  0.25865722    -0.10600
C398        C  0.65306418  0.10414070  0.24743115    -0.04500
C399        C  0.66578860  0.12521631  0.25363188    -0.10600
C400        C  0.68603843  0.12507742  0.27194610     0.10300
C401        C  0.69261052  0.10333829  0.28408540    -0.02400
C402        C  0.67940307  0.08193676  0.27735083     0.10100
C403        C  0.68627316  0.06068163  0.28950267    -0.12400
C404        C  0.70556664  0.06039713  0.30830022    -0.12400
C405        C  0.71875473  0.08131319  0.31531766     0.10100
C406        C  0.71247023  0.10298584  0.30290707    -0.02400
C407        C  0.69976011  0.14586460  0.27848318    -0.12500
C408        C  0.71961865  0.14544533  0.29674826    -0.12500
C409        C  0.72612891  0.12428546  0.30922566     0.10300
C410        C  0.74590067  0.12360987  0.32796683    -0.10600
C411        C  0.75114710  0.10243466  0.34034105    -0.04500
C412        C  0.73815261  0.08140886  0.33441531    -0.10600
H413        H  0.67653563  0.04418122  0.28468314     0.07600
H414        H  0.71010074  0.04369136  0.31736966     0.07600
H415        H  0.69518764  0.16259000  0.26947176     0.07800
H416        H  0.72972095  0.16185426  0.30123162     0.07800
H417        H  0.63794618  0.10439585  0.23291517     0.04200
H418        H  0.76634318  0.10219428  0.35479140     0.04200
C419        C  0.99492216  0.76041176  0.30204045    -0.10600
C420        C  0.97082763  0.75038341  0.29488764    -0.04500
C421        C  0.94616840  0.75916046  0.30288181    -0.10600
C422        C  0.94536453  0.77858844  0.31992045     0.10300
C423        C  0.96988467  0.78824479  0.32884930    -0.02400
C424        C  0.99482747  0.77938798  0.31955074     0.10100
C425        C  0.01865934  0.78959613  0.32811811    -0.12400
C426        C  0.01825153  0.80768152  0.34623280    -0.12400
C427        C  0.99397717  0.81642981  0.35601976     0.10100
C428        C  0.96945777  0.80702714  0.34678713    -0.02400
C429        C  0.92108221  0.78854426  0.32833237    -0.12500
C430        C  0.92066768  0.80738854  0.34555856    -0.12500
C431        C  0.94450703  0.81662224  0.35523705     0.10300
C432        C  0.94442258  0.83508646  0.37334160    -0.10600
C433        C  0.96851014  0.84281021  0.38314203    -0.04500
C434        C  0.99313256  0.83431386  0.37483340    -0.10600
H435        H  0.03780218  0.78325786  0.32118715     0.07600
H436        H  0.03707993  0.81473203  0.35268133     0.07600
H437        H  0.90224234  0.78166466  0.32171127     0.07800
H438        H  0.90152106  0.81443645  0.35167763     0.07800
H439        H  0.97125851  0.73611033  0.28111379     0.04200
H440        H  0.96812766  0.85716262  0.39683144     0.04200
C441        C  0.31088506  0.07773034  0.77020346    -0.10600
C442        C  0.31813817  0.09930975  0.78089118    -0.04500
C443        C  0.30789823  0.12094732  0.77261100    -0.10600
C444        C  0.29002846  0.12143053  0.75229388     0.10300
C445        C  0.28268481  0.09964428  0.74073262    -0.02400
C446        C  0.29269294  0.07760967  0.75003976     0.10100
C447        C  0.28425603  0.05630642  0.73897190    -0.12400
C448        C  0.26656877  0.05653671  0.71884724    -0.12400
C449        C  0.25707848  0.07808837  0.70893737     0.10100
C450        C  0.26515951  0.09988898  0.71996504    -0.02400
C451        C  0.27944319  0.14290656  0.74321085    -0.12500
C452        C  0.26233415  0.14314040  0.72266124    -0.12500
C453        C  0.25522207  0.12190116  0.71062251     0.10300
C454        C  0.23836540  0.12188115  0.68948161    -0.10600
C455        C  0.23155424  0.10033964  0.67837622    -0.04500
C456        C  0.23969098  0.07857666  0.68822423    -0.10600
H457        H  0.29137937  0.03932801  0.74579579     0.07600
H458        H  0.26068292  0.03970481  0.71078092     0.07600
H459        H  0.28459815  0.15969931  0.75180588     0.07800
H460        H  0.25488800  0.16009884  0.71607453     0.07800
H461        H  0.33163411  0.09921865  0.79674171     0.04200
H462        H  0.21765258  0.10046765  0.66284181     0.04200
C463        C  0.99355835  0.43760395  0.76291925    -0.10600
C464        C  0.96986259  0.44942146  0.76861545    -0.04500
C465        C  0.94552094  0.44344642  0.75796459    -0.10600
C466        C  0.94460057  0.42437904  0.74041241     0.10300
C467        C  0.96882267  0.41210674  0.73405463    -0.02400
C468        C  0.99334654  0.41848943  0.74572210     0.10100
C469        C  0.01677470  0.40571341  0.73986059    -0.12400
C470        C  0.01649183  0.38718349  0.72241657    -0.12400
C471        C  0.99285764  0.38109541  0.71001959     0.10100
C472        C  0.96862386  0.39345125  0.71600094    -0.02400
C473        C  0.92066746  0.41722738  0.72903153    -0.12500
C474        C  0.92045594  0.39869657  0.71130009    -0.12500
C475        C  0.94419844  0.38685179  0.70425125     0.10300
C476        C  0.94475976  0.36873253  0.68560301    -0.10600
C477        C  0.96905314  0.35819033  0.67912705    -0.04500
C478        C  0.99263326  0.36315075  0.69147934    -0.10600
H479        H  0.03553847  0.41011718  0.74866331     0.07600
H480        H  0.03504792  0.37792920  0.71825751     0.07600
H481        H  0.90201357  0.42611265  0.73366634     0.07800
H482        H  0.90166382  0.39392356  0.70276570     0.07800
H483        H  0.97032643  0.46368513  0.78239637     0.04200
H484        H  0.96921768  0.34390724  0.66534930     0.04200
C485        C  0.22812923  0.77487284  0.00593724    -0.10600
C486        C  0.21785941  0.76727246  0.02873710    -0.04500
C487        C  0.22575013  0.77703094  0.05142064    -0.10600
C488        C  0.24629338  0.79421470  0.05169460     0.10300
C489        C  0.25758806  0.80192827  0.02857747    -0.02400
C490        C  0.24797071  0.79268484  0.00551012     0.10100
C491        C  0.25845410  0.80144349  0.98294511    -0.12400
C492        C  0.27840669  0.81877728  0.98288733    -0.12400
C493        C  0.28884431  0.82758690  0.00538803     0.10100
C494        C  0.27830305  0.81909488  0.02852526    -0.02400
C495        C  0.25579353  0.80388739  0.07416630    -0.12500
C496        C  0.27659037  0.82036545  0.07414704    -0.12500
C497        C  0.28823224  0.82798198  0.05163264     0.10300
C498        C  0.30959318  0.84428511  0.05132499    -0.10600
C499        C  0.31992088  0.85189483  0.02856022    -0.04500
C500        C  0.30972861  0.84450821  0.00572114    -0.10600
H501        H  0.25130066  0.79483948  0.96517915     0.07600
H502        H  0.28600840  0.82496227  0.96510190     0.07600
H503        H  0.24744540  0.79844033  0.09193264     0.07800
H504        H  0.28362143  0.82708050  0.09191060     0.07800
H505        H  0.20219723  0.75398947  0.02875861     0.04200
H506        H  0.33560872  0.86516001  0.02866122     0.04200
C507        C  0.72302747  0.43445835  0.05009806    -0.10600
C508        C  0.73471086  0.44003666  0.02723262    -0.04500
C509        C  0.72681335  0.42956614  0.00490346    -0.10600
C510        C  0.70577700  0.41287823  0.00507819     0.10300
C511        C  0.69320206  0.40711472  0.02824175    -0.02400
C512        C  0.70215169  0.41764641  0.05095704     0.10100
C513        C  0.68994638  0.41118864  0.07362872    -0.12400
C514        C  0.66897641  0.39488840  0.07411185    -0.12400
C515        C  0.65935725  0.38475082  0.05191570     0.10100
C516        C  0.67168144  0.39078528  0.02869890    -0.02400
C517        C  0.69702531  0.40181835  0.98302555    -0.12500
C518        C  0.67589740  0.38566598  0.98348548    -0.12500
C519        C  0.66279057  0.38017978  0.00598895     0.10300
C520        C  0.64088197  0.36445120  0.00669880    -0.10600
C521        C  0.62850613  0.35971402  0.02938276    -0.04500
C522        C  0.63757346  0.36882980  0.05198251    -0.10600
H523        H  0.69648319  0.41885176  0.09113596     0.07600
H524        H  0.65998398  0.39053358  0.09194797     0.07600
H525        H  0.70640542  0.40574516  0.96525071     0.07800
H526        H  0.66961232  0.37768007  0.96605244     0.07800
H527        H  0.75098925  0.45271468  0.02684907     0.04200
H528        H  0.61237105  0.34687996  0.02962572     0.04200
C529        C  0.93789677  0.76828133  0.76006869    -0.10600
C530        C  0.96167894  0.76064655  0.77088021    -0.04500
C531        C  0.98624928  0.77034425  0.76483627    -0.10600
C532        C  0.98766526  0.78849876  0.74676187     0.10300
C533        C  0.96383969  0.79594476  0.73441621    -0.02400
C534        C  0.93867649  0.78602758  0.74124477     0.10100
C535        C  0.91549414  0.79409951  0.72906966    -0.12400
C536        C  0.91692477  0.81123974  0.71008439    -0.12400
C537        C  0.94156758  0.82091077  0.70275283     0.10100
C538        C  0.96524298  0.81343206  0.71535636    -0.02400
C539        C  0.01199691  0.79940554  0.74080302    -0.12500
C540        C  0.01323539  0.81704844  0.72257894    -0.12500
C541        C  0.99029899  0.82390545  0.70936764     0.10300
C542        C  0.99159513  0.84089829  0.69010748    -0.10600
C543        C  0.96874290  0.84644638  0.67669901    -0.04500
C544        C  0.94367953  0.83775688  0.68309589    -0.10600
H545        H  0.89616157  0.78693834  0.73399397     0.07600
H546        H  0.89866085  0.81671467  0.70092091     0.07600
H547        H  0.03024635  0.79428358  0.75021051     0.07800
H548        H  0.03241749  0.82492107  0.71841458     0.07800
H549        H  0.96095832  0.74702727  0.78523369     0.04200
H550        H  0.97010009  0.86006048  0.66238182     0.04200
C551        C  0.65146703  0.11878216  0.78314313    -0.10600
C552        C  0.63743028  0.09810076  0.78807529    -0.04500
C553        C  0.64277324  0.07689258  0.77549727    -0.10600
C554        C  0.66288180  0.07614556  0.75689052     0.10300
C555        C  0.67716188  0.09726156  0.75126642    -0.02400
C556        C  0.67154141  0.11869703  0.76454481     0.10100
C557        C  0.68596173  0.13930092  0.75880990    -0.12400
C558        C  0.70557525  0.13900285  0.74016292    -0.12400
C559        C  0.71147773  0.11804661  0.72684473     0.10100
C560        C  0.69723014  0.09690166  0.73250028    -0.02400
C561        C  0.66901024  0.05510700  0.74377254    -0.12500
C562        C  0.68885266  0.05472779  0.72532527    -0.12500
C563        C  0.70307377  0.07539174  0.71942084     0.10300
C564        C  0.72307556  0.07537946  0.70075874    -0.10600
C565        C  0.73667516  0.09621828  0.69546866    -0.04500
C566        C  0.73115112  0.11744910  0.70784449    -0.10600
H567        H  0.68201001  0.15582972  0.76863159     0.07600
H568        H  0.71612613  0.15529796  0.73621964     0.07600
H569        H  0.65837757  0.03883776  0.74764616     0.07800
H570        H  0.69293250  0.03817362  0.71559273     0.07800
H571        H  0.62246480  0.09832156  0.80287257     0.04200
H572        H  0.75235123  0.09584071  0.68132277     0.04200
C573        C  0.71470444  0.77000884  0.05099432    -0.10600
C574        C  0.72531381  0.76287588  0.02804140    -0.04500
C575        C  0.71690899  0.77269078  0.00558102    -0.10600
C576        C  0.69639800  0.79008568  0.00575117     0.10300
C577        C  0.68436661  0.79689319  0.02894941    -0.02400
C578        C  0.69377871  0.78706178  0.05177004     0.10100
C579        C  0.68205861  0.79452862  0.07445355    -0.12400
C580        C  0.66110758  0.81118221  0.07481538    -0.12400
C581        C  0.65122226  0.82084121  0.05250360     0.10100
C582        C  0.66313636  0.81376383  0.02932482    -0.02400
C583        C  0.68760141  0.80076467  0.98357790    -0.12500
C584        C  0.66691428  0.81752490  0.98397242    -0.12500
C585        C  0.65426308  0.82397697  0.00652616     0.10300
C586        C  0.63281125  0.84034813  0.00703445    -0.10600
C587        C  0.62050842  0.84605006  0.02966617    -0.04500
C588        C  0.62967420  0.83735382  0.05239715    -0.10600
H589        H  0.68890051  0.78732111  0.09204747     0.07600
H590        H  0.65242532  0.81626536  0.09264910     0.07600
H591        H  0.69657424  0.79607115  0.96575507     0.07800
H592        H  0.66057237  0.82516637  0.96641518     0.07800
H593        H  0.74154686  0.74992919  0.02773332     0.04200
H594        H  0.60467785  0.85939201  0.02979228     0.04200
C595        C  0.01168589  0.26001703  0.41472161    -0.27400
C596        C  0.03069256  0.27773009  0.40974077     0.02200
C597        C  0.05530964  0.27690723  0.42224893     0.30300
C598        C  0.06111903  0.25802950  0.43831724    -0.19200
C599        C  0.04277657  0.23953058  0.44215599    -0.28600
C600        C  0.01744293  0.24115411  0.43095510     0.44300
C601        C  0.02455953  0.29692139  0.39153080     0.05500
O602        O  0.07438690  0.29378272  0.41788367    -0.57100
H603        H  0.08076643  0.25712840  0.44669574     0.18500
O604        O  0.99913145  0.22335234  0.43376982    -0.63800
H605        H  0.99255839  0.26041940  0.40539196     0.16900
C606        C  0.01563027  0.29155920  0.36720917     0.29200
C607        C  0.00533478  0.30961853  0.35196837    -0.24700
C608        C  0.00395128  0.33318006  0.36059937    -0.24000
C609        C  0.01567590  0.33886391  0.38376058     0.40600
C610        C  0.02576133  0.32080536  0.39906372    -0.26400
O611        O  0.01516151  0.26850958  0.35883185    -0.58300
H612        H  0.99583682  0.30484634  0.33452267     0.16200
O613        O  0.01354333  0.36148183  0.39325146    -0.59800
H614        H  0.03258693  0.32530849  0.41765947     0.14700
H615        H  0.99173555  0.22548732  0.45086990     0.46600
H616        H  0.03330149  0.26544404  0.35195407     0.41900
H617        H  0.02818808  0.37044499  0.38517932     0.45400
H618        H  0.08630564  0.28679164  0.40489063     0.36900
C619        C  0.15687464  0.19319992  0.42199376    -0.27400
C620        C  0.16064414  0.17005742  0.41303604     0.02200
C621        C  0.14175095  0.15249234  0.41883334     0.30300
C622        C  0.11893368  0.15833424  0.43290112    -0.19200
C623        C  0.11434314  0.18178405  0.44094435    -0.28600
C624        C  0.13386452  0.19920899  0.43572855     0.44300
C625        C  0.18427801  0.16396468  0.39763759     0.05500
O626        O  0.14539505  0.12956449  0.41062616    -0.57100
H627        H  0.10422971  0.14472248  0.43647318     0.18500
O628        O  0.13074643  0.22213460  0.44416317    -0.63800
H629        H  0.17154635  0.20672366  0.41793354     0.16900
C630        C  0.18227715  0.16243060  0.37146235     0.29200
C631        C  0.20222448  0.15062279  0.35765972    -0.24700
C632        C  0.22417035  0.14025574  0.36978896    -0.24000
C633        C  0.22751090  0.14418865  0.39563394     0.40600
C634        C  0.20761826  0.15609998  0.40938466    -0.26400
O635        O  0.15968653  0.17025807  0.35956845    -0.58300
H636        H  0.19910864  0.14732856  0.33792449     0.16200
O637        O  0.24885843  0.13430833  0.40791681    -0.59800
H638        H  0.20937852  0.15737291  0.42952079     0.14700
H639        H  0.12543291  0.23149125  0.42929807     0.46600
H640        H  0.16287384  0.18731372  0.35618156     0.41900
H641        H  0.24177623  0.11998244  0.41633255     0.45400
H642        H  0.13557972  0.12860053  0.39460539     0.36900
C643        C  0.13520389  0.04688258  0.41346014    -0.27400
C644        C  0.15151952  0.02883564  0.40333985     0.02200
C645        C  0.14477798  0.00503968  0.40715709     0.30300
C646        C  0.12197580  0.99941145  0.42105154    -0.19200
C647        C  0.10529927  0.01732820  0.43134077    -0.28600
C648        C  0.11229004  0.04134017  0.42744795     0.44300
C649        C  0.17576765  0.03508867  0.38908445     0.05500
O650        O  0.16054608  0.98713437  0.39757049    -0.57100
H651        H  0.11740109  0.98081224  0.42368253     0.18500
O652        O  0.09665347  0.05954452  0.43658440    -0.63800
H653        H  0.14029910  0.06534560  0.41050197     0.16900
C654        C  0.17439587  0.04014656  0.36341352     0.29200
C655        C  0.19649372  0.04994126  0.35117507    -0.24700
C656        C  0.21981612  0.05519250  0.36448271    -0.24000
C657        C  0.22206066  0.04774408  0.38949503     0.40600
C658        C  0.20001752  0.03785468  0.40168946    -0.26400
O659        O  0.15103637  0.03699537  0.35057578    -0.58300
H660        H  0.19433507  0.05595067  0.33206964     0.16200
O661        O  0.24451690  0.05287894  0.40299466    -0.59800
H662        H  0.20129667  0.03377875  0.42142155     0.14700
H663        H  0.10432136  0.06352639  0.45312086     0.46600
H664        H  0.14139662  0.05241591  0.35191204     0.41900
H665        H  0.25766770  0.04034527  0.39831470     0.45400
H666        H  0.15343396  0.98402209  0.38061454     0.36900
C667        C  0.03050057  0.88865607  0.38895511    -0.27400
C668        C  0.03106462  0.88714341  0.41513140     0.02200
C669        C  0.02720356  0.86488044  0.42638727     0.30300
C670        C  0.02001162  0.84518754  0.41167903    -0.19200
C671        C  0.01605318  0.84744875  0.38570947    -0.28600
C672        C  0.02323237  0.86900500  0.37426575     0.44300
C673        C  0.03432417  0.90921907  0.43026109     0.05500
O674        O  0.02754399  0.86278925  0.45190300    -0.57100
H675        H  0.01392717  0.82903180  0.42099360     0.18500
O676        O  0.01996458  0.87187793  0.34901670    -0.63800
H677        H  0.03408324  0.90555850  0.37996916     0.16900
C678        C  0.05884501  0.91451671  0.44157273     0.29200
C679        C  0.06298169  0.93705650  0.45212322    -0.24700
C680        C  0.04277787  0.95463276  0.45194505    -0.24000
C681        C  0.01754147  0.94865016  0.44241200     0.40600
C682        C  0.01349116  0.92614941  0.43151175    -0.26400
O683        O  0.07935455  0.89821715  0.44127374    -0.58300
H684        H  0.08261077  0.94128690  0.45925559     0.16200
O685        O  0.99736488  0.96522295  0.44194518    -0.59800
H686        H  0.99438667  0.92225727  0.42305358     0.14700
H687        H  0.00183896  0.87884925  0.34704256     0.46600
H688        H  0.08872045  0.90067323  0.42512505     0.41900
H689        H  0.00043312  0.97449185  0.42648299     0.45400
H690        H  0.04603138  0.85775633  0.45598363     0.36900
C691        C  0.75767694  0.04885638  0.39135424    -0.27400
C692        C  0.78343041  0.04169811  0.38391856     0.02200
C693        C  0.78994547  0.04120160  0.35830263     0.30300
C694        C  0.77187516  0.05022920  0.34077590    -0.19200
C695        C  0.74759855  0.06049588  0.34859035    -0.28600
C696        C  0.73982415  0.05840745  0.37384339     0.44300
C697        C  0.80427565  0.03701676  0.40288885     0.05500
O698        O  0.81454920  0.03313777  0.35044861    -0.57100
H699        H  0.77830298  0.05201128  0.32150674     0.18500
O700        O  0.71605955  0.06809694  0.38194143    -0.63800
H701        H  0.75225901  0.04894730  0.41098435     0.16900
C702        C  0.82652881  0.05212206  0.40503865     0.29200
C703        C  0.84751030  0.04626697  0.42118717    -0.24700
C704        C  0.84677604  0.02528327  0.43521559    -0.24000
C705        C  0.82375771  0.01091854  0.43409716     0.40600
C706        C  0.80257576  0.01702644  0.41825879    -0.26400
O707        O  0.82843748  0.07217010  0.39066385    -0.58300
H708        H  0.86503519  0.05743897  0.42163729     0.16200
O709        O  0.82192623  0.99072543  0.44827236    -0.59800
H710        H  0.78533645  0.00555139  0.41715044     0.14700
H711        H  0.72048555  0.08427183  0.38799446     0.46600
H712        H  0.81756567  0.08439918  0.39952314     0.41900
H713        H  0.82546025  0.97736102  0.43653612     0.45400
H714        H  0.82477122  0.04757289  0.34605493     0.36900
C715        C  0.90845251  0.87036088  0.42015398    -0.27400
C716        C  0.90836561  0.89225927  0.40761869     0.02200
C717        C  0.91066342  0.89212717  0.38130947     0.30300
C718        C  0.91688164  0.87094607  0.36852663    -0.19200
C719        C  0.92116529  0.84970478  0.38165553    -0.28600
C720        C  0.91432859  0.84914039  0.40727827     0.44300
C721        C  0.90835363  0.91508125  0.42210126     0.05500
O722        O  0.90908748  0.91291697  0.36811083    -0.57100
H723        H  0.92210788  0.87184424  0.34887436     0.18500
O724        O  0.91811801  0.82870602  0.42070720    -0.63800
H725        H  0.90633020  0.86989161  0.44029571     0.16900
C726        C  0.88862202  0.92022992  0.44022057     0.29200
C727        C  0.88832911  0.94235826  0.45249047    -0.24700
C728        C  0.90762016  0.95972387  0.44722838    -0.24000
C729        C  0.92778590  0.95433194  0.42965281     0.40600
C730        C  0.92832998  0.93207840  0.41758687    -0.26400
O731        O  0.86822327  0.90459971  0.44448333    -0.58300
H732        H  0.87191038  0.94656424  0.46507407     0.16200
O733        O  0.94562630  0.97139970  0.42252789    -0.59800
H734        H  0.94387771  0.92842982  0.40390824     0.14700
H735        H  0.90209954  0.81896670  0.41735123     0.46600
H736        H  0.87186816  0.89769511  0.46115166     0.41900
H737        H  0.93703793  0.97978151  0.40837893     0.45400
H738        H  0.88969626  0.91612268  0.36622708     0.36900
C739        C  0.91801606  0.33835083  0.42520511    -0.27400
C740        C  0.90642065  0.31671256  0.41828509     0.02200
C741        C  0.89519904  0.31468925  0.39425308     0.30300
C742        C  0.89884300  0.33284625  0.37657551    -0.19200
C743        C  0.91443409  0.35283029  0.38226860    -0.28600
C744        C  0.92125708  0.35665231  0.40762572     0.44300
C745        C  0.90955384  0.29517096  0.43427635     0.05500
O746        O  0.88314363  0.29397607  0.38701867    -0.57100
H747        H  0.89342775  0.32938517  0.35732809     0.18500
O748        O  0.93640203  0.37590704  0.41409294    -0.63800
H749        H  0.92651556  0.34033529  0.44366711     0.16900
C750        C  0.93395761  0.28238199  0.43448098     0.29200
C751        C  0.93505659  0.25912344  0.44414572    -0.24700
C752        C  0.91209141  0.24845353  0.45408644    -0.24000
C753        C  0.88859469  0.26241683  0.45645536     0.40600
C754        C  0.88731073  0.28534484  0.44624988    -0.26400
O755        O  0.95636033  0.29181301  0.42362701    -0.58300
H756        H  0.95311351  0.24872415  0.44166426     0.16200
O757        O  0.86584017  0.25280220  0.46643570    -0.59800
H758        H  0.86845845  0.29492884  0.44642135     0.14700
H759        H  0.92399013  0.38970494  0.41350042     0.46600
H760        H  0.95434618  0.28894257  0.40543553     0.41900
H761        H  0.86781695  0.25455032  0.48478086     0.45400
H762        H  0.89777351  0.28378335  0.38028660     0.36900
C763        C  0.83423754  0.15332413  0.40048986    -0.27400
C764        C  0.82543799  0.16970890  0.38253183     0.02200
C765        C  0.83737950  0.19208644  0.38127446     0.30300
C766        C  0.85746032  0.19812513  0.39817465    -0.19200
C767        C  0.86629728  0.18197968  0.41654668    -0.28600
C768        C  0.85464024  0.15921429  0.41733199     0.44300
C769        C  0.80378256  0.16322072  0.36515035     0.05500
O770        O  0.82902750  0.20842331  0.36399017    -0.57100
H771        H  0.86605167  0.21568282  0.39685915     0.18500
O772        O  0.86211258  0.14298667  0.43507226    -0.63800
H773        H  0.82513818  0.13594191  0.40151387     0.16900
C774        C  0.80972821  0.15356958  0.34147625     0.29200
C775        C  0.78925477  0.14400371  0.32687625    -0.24700
C776        C  0.76281938  0.14370470  0.33580264    -0.24000
C777        C  0.75658680  0.15553765  0.35835406     0.40600
C778        C  0.77706439  0.16507580  0.37297183    -0.26400
O779        O  0.83568015  0.15194733  0.33325245    -0.58300
H780        H  0.79444943  0.13447137  0.30987204     0.16200
O781        O  0.73104526  0.15518048  0.36772578    -0.59800
H782        H  0.77227616  0.17268417  0.39109684     0.14700
H783        H  0.87432304  0.13173028  0.42630124     0.46600
H784        H  0.84209328  0.13612068  0.33881508     0.41900
H785        H  0.72126571  0.16765699  0.35837192     0.45400
H786        H  0.84119189  0.20621080  0.34946607     0.36900
C787        C  0.04644899  0.26096877  0.65927611    -0.27400
C788        C  0.03149223  0.27931604  0.64845463     0.02200
C789        C  0.02006533  0.27542218  0.62461032     0.30300
C790        C  0.02492715  0.25399048  0.61159528    -0.19200
C791        C  0.04103500  0.23619498  0.62210497    -0.28600
C792        C  0.05109071  0.23963307  0.64649411     0.44300
C793        C  0.02798078  0.30227052  0.66228935     0.05500
O794        O  0.00455191  0.29259574  0.61362755    -0.57100
H795        H  0.01706417  0.25171493  0.59292238     0.18500
O796        O  0.06560163  0.22207871  0.65807306    -0.63800
H797        H  0.05531702  0.26337387  0.67752604     0.16900
C798        C  0.01965243  0.30278944  0.68756625     0.29200
C799        C  0.01353278  0.32449518  0.69928111    -0.24700
C800        C  0.01435700  0.34586494  0.68588955    -0.24000
C801        C  0.02538515  0.34561446  0.66159179     0.40600
C802        C  0.03231843  0.32396608  0.65006267    -0.26400
O803        O  0.01508746  0.28213288  0.70035899    -0.58300
H804        H  0.00443525  0.32424360  0.71770581     0.16200
O805        O  0.02650560  0.36620650  0.64800125    -0.59800
H806        H  0.03961736  0.32408248  0.63097172     0.14700
H807        H  0.08443342  0.22743077  0.65750064     0.46600
H808        H  0.99652434  0.27762650  0.69614181     0.41900
H809        H  0.01031334  0.36615638  0.63738614     0.45400
H810        H  0.98652153  0.29070762  0.62107351     0.36900
C811        C  0.17864158  0.15891644  0.67537685    -0.27400
C812        C  0.18428488  0.16534297  0.65061437     0.02200
C813        C  0.21060347  0.16306068  0.64153551     0.30300
C814        C  0.23006508  0.15169914  0.65617474    -0.19200
C815        C  0.22354702  0.14285021  0.67995860    -0.28600
C816        C  0.19806497  0.14775138  0.69003854     0.44300
C817        C  0.16177297  0.17103845  0.63372895     0.05500
O818        O  0.21690619  0.17014222  0.61774260    -0.57100
H819        H  0.24945571  0.14772813  0.64802078     0.18500
O820        O  0.19111745  0.13934569  0.71319168    -0.63800
H821        H  0.15851714  0.16091350  0.68269502     0.16900
C822        C  0.14295905  0.15341381  0.62778704     0.29200
C823        C  0.11994465  0.15928003  0.61431861    -0.24700
C824        C  0.11491961  0.18282191  0.60718627    -0.24000
C825        C  0.13462710  0.20018368  0.61175099     0.40600
C826        C  0.15799942  0.19414652  0.62474379    -0.26400
O827        O  0.14667223  0.13044796  0.63561644    -0.58300
H828        H  0.10511960  0.14569363  0.61109337     0.16200
O829        O  0.13095921  0.22318109  0.60396335    -0.59800
H830        H  0.17254018  0.20776226  0.62884395     0.14700
H831        H  0.18303707  0.12357253  0.71008846     0.46600
H832        H  0.13558144  0.12894370  0.65093402     0.41900
H833        H  0.12595020  0.23229315  0.61921370     0.45400
H834        H  0.21524174  0.15568311  0.60722762     0.36900
C835        C  0.93304980  0.27405250  0.63825238    -0.27400
C836        C  0.91379314  0.29136175  0.63191761     0.02200
C837        C  0.89638299  0.28654518  0.61195109     0.30300
C838        C  0.89723538  0.26430737  0.59986328    -0.19200
C839        C  0.91550635  0.24652863  0.60710789    -0.28600
C840        C  0.93387679  0.25180799  0.62614167     0.44300
C841        C  0.91217856  0.31423032  0.64631283     0.05500
O842        O  0.87742845  0.30293195  0.60503702    -0.57100
H843        H  0.88222650  0.26029970  0.58597524     0.18500
O844        O  0.95142653  0.23470789  0.63428631    -0.63800
H845        H  0.94703485  0.27752785  0.65319171     0.16900
C846        C  0.90957406  0.31444061  0.67259064     0.29200
C847        C  0.91350649  0.33560313  0.68614709    -0.24700
C848        C  0.92167692  0.35643944  0.67398156    -0.24000
C849        C  0.92002490  0.35703034  0.64760897     0.40600
C850        C  0.91558108  0.33599970  0.63400579    -0.26400
O851        O  0.90461541  0.29377880  0.68526474    -0.58300
H852        H  0.91457582  0.33465527  0.70634392     0.16200
O853        O  0.92808587  0.37687496  0.63495589    -0.59800
H854        H  0.91730767  0.33634851  0.61382192     0.14700
H855        H  0.94260178  0.22735158  0.64894743     0.46600
H856        H  0.92187358  0.28918749  0.69297057     0.41900
H857        H  0.91155984  0.38637396  0.63248892     0.45400
H858        H  0.86164198  0.29959033  0.61569548     0.36900
C859        C  0.82312259  0.18972160  0.66192948    -0.27400
C860        C  0.81360576  0.16663430  0.65930376     0.02200
C861        C  0.82584742  0.15111155  0.64192468     0.30300
C862        C  0.84721322  0.15894639  0.62712524    -0.19200
C863        C  0.85677762  0.18228635  0.62944057    -0.28600
C864        C  0.84444986  0.19764700  0.64730751     0.44300
C865        C  0.79025216  0.15907810  0.67414010     0.05500
O866        O  0.81696314  0.12826372  0.63922738    -0.57100
H867        H  0.85622111  0.14671360  0.61379852     0.18500
O868        O  0.85279997  0.22058675  0.65066500    -0.63800
H869        H  0.81376836  0.20177386  0.67524595     0.16900
C870        C  0.79258776  0.15344169  0.69964767     0.29200
C871        C  0.77120344  0.14267810  0.71216381    -0.24700
C872        C  0.74735971  0.13780240  0.69949781    -0.24000
C873        C  0.74427311  0.14570135  0.67471301     0.40600
C874        C  0.76568955  0.15619553  0.66218687    -0.26400
O875        O  0.81642770  0.15628086  0.71176717    -0.58300
H876        H  0.77411907  0.13610195  0.73096488     0.16200
O877        O  0.72119387  0.14106164  0.66189983    -0.59800
H878        H  0.76360102  0.16086476  0.64266377     0.14700
H879        H  0.86613688  0.21979352  0.66428670     0.46600
H880        H  0.81616903  0.17293643  0.71788673     0.41900
H881        H  0.72517420  0.12674151  0.65162020     0.45400
H882        H  0.82706096  0.11890899  0.65174365     0.36900
C883        C  0.92887596  0.93158373  0.63108959    -0.27400
C884        C  0.90902177  0.91434212  0.62735959     0.02200
C885        C  0.88859730  0.91899476  0.61010516     0.30300
C886        C  0.88746617  0.94096428  0.59784243    -0.19200
C887        C  0.90666927  0.95866360  0.60223412    -0.28600
C888        C  0.92780373  0.95360172  0.61869266     0.44300
C889        C  0.90975384  0.89171296  0.64176483     0.05500
O890        O  0.86852073  0.90289827  0.60655537    -0.57100
H891        H  0.87056814  0.94473553  0.58586679     0.18500
O892        O  0.94640992  0.97059202  0.62413471    -0.63800
H893        H  0.94485109  0.92819991  0.64422147     0.16900
C894        C  0.91575579  0.86994099  0.62988751     0.29200
C895        C  0.92093032  0.84956769  0.64422084    -0.24700
C896        C  0.92149732  0.85077342  0.67054640    -0.24000
C897        C  0.91212930  0.87178228  0.68221086     0.40600
C898        C  0.90652820  0.89208900  0.66785894    -0.26400
O899        O  0.91917049  0.86890068  0.60445185    -0.58300
H900        H  0.92862792  0.83383421  0.63482013     0.16200
O901        O  0.91176566  0.87354314  0.70779103    -0.59800
H902        H  0.90136544  0.90859335  0.67726304     0.14700
H903        H  0.93870140  0.97981406  0.63830695     0.46600
H904        H  0.93786456  0.87391488  0.60142761     0.41900
H905        H  0.92952333  0.87985514  0.71241267     0.45400
H906        H  0.87301271  0.89467124  0.59064319     0.36900
C907        C  0.79632464  0.00954059  0.62383405    -0.27400
C908        C  0.79364305  0.03125487  0.63631118     0.02200
C909        C  0.81370201  0.04851194  0.63378802     0.30300
C910        C  0.83694402  0.04336995  0.62000881    -0.19200
C911        C  0.84053243  0.02097652  0.60878373    -0.28600
C912        C  0.81958042  0.00425126  0.61022390     0.44300
C913        C  0.77067433  0.03549801  0.65314118     0.05500
O914        O  0.81127926  0.07003094  0.64573593    -0.57100
H915        H  0.85274346  0.05640363  0.61929329     0.18500
O916        O  0.82173562  0.98257082  0.59851276    -0.63800
H917        H  0.78076828  0.99633584  0.62538022     0.16900
C918        C  0.74659687  0.04492160  0.64400659     0.29200
C919        C  0.72757318  0.05412903  0.66076747    -0.24700
C920        C  0.73266182  0.05443437  0.68658133    -0.24000
C921        C  0.75527348  0.04234499  0.69572445     0.40600
C922        C  0.77414638  0.03291176  0.67896359    -0.26400
O923        O  0.74292121  0.04777402  0.61882215    -0.58300
H924        H  0.71063176  0.06393567  0.65345801     0.16200
O925        O  0.76081919  0.04254803  0.72081502    -0.59800
H926        H  0.79258239  0.02543148  0.68611668     0.14700
H927        H  0.82547206  0.97098894  0.61200369     0.46600
H928        H  0.73406982  0.03300563  0.61319204     0.41900
H929        H  0.77230448  0.05661270  0.72348616     0.45400
H930        H  0.80043864  0.08004309  0.63437163     0.36900
C931        C  0.14787974  0.04610584  0.62254963    -0.27400
C932        C  0.16146783  0.02849334  0.63615290     0.02200
C933        C  0.15149323  0.00535820  0.63657232     0.30300
C934        C  0.12784575  0.00013943  0.62403094    -0.19200
C935        C  0.11313483  0.01793646  0.61138750    -0.28600
C936        C  0.12382019  0.04103234  0.61027174     0.44300
C937        C  0.18500948  0.03496523  0.65116888     0.05500
O938        O  0.16409327  0.98796406  0.65010860    -0.57100
H939        H  0.12049727  0.98212409  0.62518299     0.18500
O940        O  0.11021103  0.05910890  0.59874007    -0.63800
H941        H  0.15543139  0.06409803  0.62230276     0.16900
C942        C  0.20962681  0.03977166  0.63959473     0.29200
C943        C  0.22969930  0.05123132  0.65308704    -0.24700
C944        C  0.22553349  0.05764667  0.67821578    -0.24000
C945        C  0.20215358  0.05013266  0.69050800     0.40600
C946        C  0.18196738  0.03895398  0.67691487    -0.26400
O947        O  0.21339160  0.03512696  0.61464437    -0.58300
H948        H  0.24745124  0.05715756  0.64334349     0.16200
O949        O  0.19731848  0.05658067  0.71487094    -0.59800
H950        H  0.16313584  0.03506431  0.68604272     0.14700
H951        H  0.11784876  0.05984220  0.58162948     0.46600
H952        H  0.21700470  0.01779577  0.61360045     0.41900
H953        H  0.20597579  0.04401936  0.72501302     0.45400
H954        H  0.17641675  0.97997999  0.63812055     0.36900
C955        C  0.01998727  0.90020258  0.68636440    -0.27400
C956        C  0.02872791  0.89977878  0.66135342     0.02200
C957        C  0.03394922  0.87759148  0.64991790     0.30300
C958        C  0.02634663  0.85659471  0.66195934    -0.19200
C959        C  0.01392082  0.85741781  0.68556524    -0.28600
C960        C  0.01289358  0.87920857  0.69855130     0.44300
C961        C  0.03154800  0.92257917  0.64753714     0.05500
O962        O  0.04490801  0.87629054  0.62641256    -0.57100
H963        H  0.02719735  0.83999105  0.65165163     0.18500
O964        O  0.00136277  0.88053248  0.72185112    -0.63800
H965        H  0.01657924  0.91698512  0.69588939     0.16900
C966        C  0.02013147  0.92627042  0.62365113     0.29200
C967        C  0.02405462  0.94786952  0.61099167    -0.24700
C968        C  0.03872135  0.96612469  0.62217181    -0.24000
C969        C  0.04804789  0.96301985  0.64688464     0.40600
C970        C  0.04479010  0.94142842  0.65908254    -0.26400
O971        O  0.00537272  0.90885643  0.61239132    -0.58300
H972        H  0.01664622  0.94994103  0.59213609     0.16200
O973        O  0.06158890  0.98075733  0.65898712    -0.59800
H974        H  0.05321850  0.93927532  0.67755535     0.14700
H975        H  0.98233986  0.88468694  0.71892608     0.46600
H976        H  0.98727690  0.91029743  0.61989960     0.41900
H977        H  0.04754595  0.99166788  0.66554474     0.45400
H978        H  0.06448267  0.87552693  0.62908580     0.36900
C979        C  0.36002790  0.14882466  0.17632566    -0.27400
C980        C  0.34976597  0.16617735  0.19274819     0.02200
C981        C  0.35228560  0.19024280  0.18681668     0.30300
C982        C  0.36489884  0.19683430  0.16462308    -0.19200
C983        C  0.37501763  0.17963339  0.14772812    -0.28600
C984        C  0.37256304  0.15535581  0.15390350     0.44300
C985        C  0.33608957  0.15902596  0.21592796     0.05500
O986        O  0.34217890  0.20746570  0.20250624    -0.57100
H987        H  0.36645326  0.21561566  0.16059743     0.18500
O988        O  0.38205786  0.13787164  0.13822184    -0.63800
H989        H  0.35813594  0.13015813  0.18085867     0.16900
C990        C  0.31073139  0.14858708  0.21498552     0.29200
C991        C  0.29924300  0.13956724  0.23676764    -0.24700
C992        C  0.31348055  0.13963958  0.25931043    -0.24000
C993        C  0.33795599  0.15166080  0.26062582     0.40600
C994        C  0.34901923  0.16153453  0.23897859    -0.26400
O995        O  0.29774348  0.14597261  0.19263668    -0.58300
H996        H  0.28073619  0.12977568  0.23538539     0.16200
O997        O  0.35261273  0.15130908  0.28219307    -0.59800
H998        H  0.36854496  0.16966631  0.23982285     0.14700
H999        H  0.36661150  0.13334008  0.12774173     0.46600
H1000       H  0.30224124  0.12964579  0.18685354     0.41900
H1001       H  0.34548346  0.16470129  0.29238274     0.45400
H1002       H  0.32332102  0.20967318  0.19734577     0.36900
C1003       C  0.38433457  0.28481658  0.10426465    -0.27400
C1004       C  0.35987390  0.28907779  0.09222800     0.02200
C1005       C  0.34892994  0.27065564  0.07741069     0.30300
C1006       C  0.36165274  0.24835568  0.07598623    -0.19200
C1007       C  0.38541042  0.24385399  0.08897466    -0.28600
C1008       C  0.39686471  0.26241180  0.10294074     0.44300
C1009       C  0.34680587  0.31309411  0.09374088     0.05500
O1010       O  0.32525807  0.27380015  0.06493972    -0.57100
H1011       H  0.35199223  0.23404399  0.06597476     0.18500
O1012       O  0.41933335  0.25826426  0.11686540    -0.63800
H1013       H  0.39327478  0.29865276  0.11551826     0.16900
C1014       C  0.31907170  0.31584226  0.09801125     0.29200
C1015       C  0.30610186  0.33711445  0.09137146    -0.24700
C1016       C  0.32058816  0.35591018  0.08090193    -0.24000
C1017       C  0.34877041  0.35487403  0.08198845     0.40600
C1018       C  0.36166445  0.33339445  0.08780867    -0.26400
O1019       O  0.30413628  0.29716063  0.10642128    -0.58300
H1020       H  0.28446058  0.33760704  0.09108249     0.16200
O1021       O  0.36364061  0.37308423  0.07239959    -0.59800
H1022       H  0.38309476  0.33202811  0.08517443     0.14700
H1023       H  0.43443636  0.26330885  0.10611679     0.46600
H1024       H  0.30292426  0.29942820  0.12477862     0.41900
H1025       H  0.36451215  0.38503621  0.08602742     0.45400
H1026       H  0.32844770  0.28663687  0.05267855     0.36900
C1027       C  0.37608535  0.00929777  0.19505338    -0.27400
C1028       C  0.36416215  0.03172304  0.19762414     0.02200
C1029       C  0.36762291  0.04864066  0.17853805     0.30300
C1030       C  0.38200450  0.04263181  0.15678321    -0.19200
C1031       C  0.39279816  0.01969522  0.15354910    -0.28600
C1032       C  0.39025454  0.00318923  0.17331987     0.44300
C1033       C  0.34815420  0.03734301  0.22029385     0.05500
O1034       O  0.35735213  0.07119420  0.18120820    -0.57100
H1035       H  0.38380283  0.05568463  0.14205955     0.18500
O1036       O  0.40111520  0.98080957  0.17149986    -0.63800
H1037       H  0.37390470  0.99627430  0.20976889     0.16900
C1038       C  0.32066985  0.04248806  0.21856192     0.29200
C1039       C  0.30677850  0.05141226  0.23937996    -0.24700
C1040       C  0.32010994  0.05570327  0.26195433    -0.24000
C1041       C  0.34685922  0.04812384  0.26439912     0.40600
C1042       C  0.36069270  0.03890193  0.24363339    -0.26400
O1043       O  0.30772909  0.04060235  0.19612574    -0.58300
H1044       H  0.28641698  0.05767305  0.23702753     0.16200
O1045       O  0.36061614  0.05268213  0.28596824    -0.59800
H1046       H  0.38176658  0.03468730  0.24527703     0.14700
H1047       H  0.41963504  0.98234633  0.17775939     0.46600
H1048       H  0.30126784  0.02400602  0.19544895     0.41900
H1049       H  0.35462772  0.04040846  0.29795202     0.45400
H1050       H  0.34143309  0.07175788  0.17026443     0.36900
C1051       C  0.39219849  0.91753515  0.10685044    -0.27400
C1052       C  0.37282117  0.91497919  0.08824834     0.02200
C1053       C  0.37025729  0.93289975  0.06997964     0.30300
C1054       C  0.38510750  0.95384703  0.07179066    -0.19200
C1055       C  0.40262693  0.95737249  0.09177789    -0.28600
C1056       C  0.40689724  0.93861860  0.10881521     0.44300
C1057       C  0.35490477  0.89396462  0.08782910     0.05500
O1058       O  0.35230938  0.93059130  0.05087794    -0.57100
H1059       H  0.38129376  0.96809783  0.05869744     0.18500
O1060       O  0.42481089  0.94116304  0.12795959    -0.63800
H1061       H  0.39495779  0.90372450  0.12066099     0.16900
C1062       C  0.36520773  0.87072878  0.08521400     0.29200
C1063       C  0.34818089  0.85213507  0.07835377    -0.24700
C1064       C  0.32105232  0.85660290  0.07327293    -0.24000
C1065       C  0.31018205  0.87897890  0.07958666     0.40600
C1066       C  0.32709230  0.89747099  0.08685295    -0.26400
O1067       O  0.39217182  0.86647416  0.08664794    -0.58300
H1068       H  0.35693800  0.83510297  0.07328793     0.16200
O1069       O  0.28369795  0.88381767  0.07525151    -0.59800
H1070       H  0.31872906  0.91511968  0.08953386     0.14700
H1071       H  0.41386477  0.94232050  0.14341924     0.46600
H1072       H  0.39905065  0.86859151  0.06938942     0.41900
H1073       H  0.28305384  0.89064290  0.05819776     0.45400
H1074       H  0.35931326  0.91734243  0.04039103     0.36900
C1075       C  0.38513042  0.01158183  0.84641718    -0.27400
C1076       C  0.36692367  0.03063275  0.84519005     0.02200
C1077       C  0.36375220  0.04557209  0.86628365     0.30300
C1078       C  0.37797651  0.04097249  0.88830846    -0.19200
C1079       C  0.39513806  0.02124043  0.88997129    -0.28600
C1080       C  0.39906143  0.00677855  0.86858966     0.44300
C1081       C  0.35147872  0.03538407  0.82195126     0.05500
O1082       O  0.34696979  0.06494109  0.86541111    -0.57100
H1083       H  0.37454954  0.05221394  0.90451622     0.18500
O1084       O  0.41609063  0.98758890  0.86933624    -0.63800
H1085       H  0.38807323  0.00006973  0.83034485     0.16900
C1086       C  0.36448954  0.04161342  0.79953926     0.29200
C1087       C  0.34990506  0.05221826  0.78014917    -0.24700
C1088       C  0.32229519  0.05645462  0.78266330    -0.24000
C1089       C  0.30886404  0.04725723  0.80361787     0.40600
C1090       C  0.32344146  0.03677434  0.82305781    -0.26400
O1091       O  0.39177127  0.04010158  0.79758536    -0.58300
H1092       H  0.36063124  0.05958980  0.76437670     0.16200
O1093       O  0.28188424  0.05086619  0.80650562    -0.59800
H1094       H  0.31301504  0.03143523  0.83988871     0.14700
H1095       H  0.43405484  0.99411946  0.86578847     0.46600
H1096       H  0.39533778  0.02496218  0.78857876     0.41900
H1097       H  0.28006764  0.06582061  0.81626644     0.45400
H1098       H  0.33054576  0.06006962  0.87441576     0.36900
C1099       C  0.38468555  0.91966157  0.94158720    -0.27400
C1100       C  0.36659986  0.91866306  0.96169264     0.02200
C1101       C  0.36489358  0.93828271  0.97819350     0.30300
C1102       C  0.38046381  0.95857519  0.97411494    -0.19200
C1103       C  0.39717470  0.96017992  0.95311271    -0.28600
C1104       C  0.39946425  0.94034573  0.93694258     0.44300
C1105       C  0.35009824  0.89697320  0.96582596     0.05500
O1106       O  0.34806071  0.93773156  0.99846027    -0.57100
H1107       H  0.37807453  0.97370584  0.98654155     0.18500
O1108       O  0.41600280  0.94110888  0.91643295    -0.63800
H1109       H  0.38662813  0.90468116  0.92890805     0.16900
C1110       C  0.32204202  0.89842656  0.96831967     0.29200
C1111       C  0.30758370  0.87893797  0.97735045    -0.24700
C1112       C  0.32066816  0.85772535  0.98395004    -0.24000
C1113       C  0.34816117  0.85533165  0.97831091     0.40600
C1114       C  0.36263481  0.87482915  0.96925562    -0.26400
O1115       O  0.30877447  0.91933307  0.96366546    -0.58300
H1116       H  0.28660783  0.88133012  0.98188479     0.16200
O1117       O  0.36157198  0.83479223  0.98430912    -0.59800
H1118       H  0.38407956  0.87314819  0.96691138     0.14700
H1119       H  0.40403243  0.94374977  0.90197626     0.46600
H1120       H  0.30571346  0.91936412  0.94537451     0.41900
H1121       H  0.37020570  0.83803422  0.00060510     0.45400
H1122       H  0.33387701  0.94966483  0.99502897     0.36900
C1123       C  0.36674187  0.28158051  0.94667574    -0.27400
C1124       C  0.35744823  0.28591635  0.97093011     0.02200
C1125       C  0.36341023  0.26935628  0.98988187     0.30300
C1126       C  0.37702687  0.24811180  0.98408736    -0.19200
C1127       C  0.38483426  0.24303041  0.95939713    -0.28600
C1128       C  0.38018391  0.26039392  0.94077238     0.44300
C1129       C  0.34072664  0.30729865  0.97606064     0.05500
O1130       O  0.35537492  0.27349360  0.01401905    -0.57100
H1131       H  0.38023407  0.23512666  0.99867979     0.18500
O1132       O  0.38846149  0.25672697  0.91656481    -0.63800
H1133       H  0.36264077  0.29426406  0.93198062     0.16900
C1134       C  0.35089202  0.33037052  0.97296619     0.29200
C1135       C  0.33604967  0.35008519  0.98148746    -0.24700
C1136       C  0.31090258  0.34707076  0.99277296    -0.24000
C1137       C  0.29945737  0.32427666  0.99281619     0.40600
C1138       C  0.31449867  0.30455982  0.98486765    -0.26400
O1139       O  0.37639106  0.33360470  0.96420315    -0.58300
H1140       H  0.34545335  0.36735892  0.98192811     0.16200
O1141       O  0.27523259  0.32067646  0.00421269    -0.59800
H1142       H  0.30618347  0.28694010  0.98680831     0.14700
H1143       H  0.37194293  0.25351361  0.90698903     0.46600
H1144       H  0.37429263  0.33788148  0.94635939     0.41900
H1145       H  0.26180307  0.32337875  0.99095150     0.45400
H1146       H  0.36989800  0.28296083  0.02158896     0.36900
C1147       C  0.36902747  0.18949350  0.85464704    -0.27400
C1148       C  0.35493760  0.16817199  0.85280232     0.02200
C1149       C  0.35541510  0.15212962  0.87299924     0.30300
C1150       C  0.36884041  0.15808138  0.89509701    -0.19200
C1151       C  0.38156453  0.18007310  0.89746938    -0.28600
C1152       C  0.38220804  0.19552329  0.87674603     0.44300
C1153       C  0.34055262  0.16232992  0.82946089     0.05500
O1154       O  0.34337274  0.13037468  0.87098902    -0.57100
H1155       H  0.36835868  0.14589657  0.91071442     0.18500
O1156       O  0.39540530  0.21675327  0.87799262    -0.63800
H1157       H  0.36937730  0.20170318  0.83904715     0.16900
C1158       C  0.31293717  0.15772361  0.82973193     0.29200
C1159       C  0.30083189  0.14763047  0.80867183    -0.24700
C1160       C  0.31610814  0.14182527  0.78744294    -0.24000
C1161       C  0.34293239  0.14908897  0.78617593     0.40600
C1162       C  0.35497486  0.15941789  0.80709730    -0.26400
O1163       O  0.29796117  0.16230936  0.85080282    -0.58300
H1164       H  0.28021396  0.14199926  0.80992184     0.16200
O1165       O  0.35815345  0.14393808  0.76542216    -0.59800
H1166       H  0.37612198  0.16335769  0.80648066     0.14700
H1167       H  0.41444524  0.21274449  0.87477804     0.46600
H1168       H  0.29182153  0.14662214  0.85683502     0.41900
H1169       H  0.36735497  0.12871245  0.76921644     0.45400
H1170       H  0.32831971  0.13075071  0.88311398     0.36900
C1171       C  0.62307415  0.31606788  0.08747414    -0.27400
C1172       C  0.59525935  0.31614177  0.08382188     0.02200
C1173       C  0.58221970  0.33810709  0.08002884     0.30300
C1174       C  0.59734216  0.35869570  0.07612650    -0.19200
C1175       C  0.62540724  0.35727387  0.07418238    -0.28600
C1176       C  0.63817180  0.33649069  0.08273400     0.44300
C1177       C  0.58080615  0.29314267  0.08107928     0.05500
O1178       O  0.55502069  0.33921535  0.07719573    -0.57100
H1179       H  0.58711109  0.37459625  0.06981054     0.18500
O1180       O  0.66554092  0.33486138  0.08259977    -0.63800
H1181       H  0.63339209  0.29959712  0.09172540     0.16900
C1182       C  0.59006917  0.27560017  0.06408954     0.29200
C1183       C  0.57770354  0.25329393  0.06298356    -0.24700
C1184       C  0.55611885  0.24795394  0.07873510    -0.24000
C1185       C  0.54582187  0.26596824  0.09454465     0.40600
C1186       C  0.55793476  0.28840173  0.09545548    -0.26400
O1187       O  0.61152622  0.28001052  0.04876232    -0.58300
H1188       H  0.58648920  0.23948325  0.05133101     0.16200
O1189       O  0.52495251  0.26122404  0.11042943    -0.59800
H1190       H  0.55033253  0.30163856  0.10847033     0.14700
H1191       H  0.67037141  0.32763345  0.06623153     0.46600
H1192       H  0.62662319  0.27078984  0.05587046     0.41900
H1193       H  0.53332285  0.25721284  0.12665040     0.45400
H1194       H  0.55181755  0.33542109  0.05934446     0.36900
C1195       C  0.58890221  0.16086372  0.17257539    -0.27400
C1196       C  0.61052529  0.17522548  0.17951912     0.02200
C1197       C  0.61658094  0.19528200  0.16515464     0.30300
C1198       C  0.60135968  0.20063476  0.14405592    -0.19200
C1199       C  0.57985920  0.18616747  0.13673883    -0.28600
C1200       C  0.57358875  0.16619633  0.15139740     0.44300
C1201       C  0.62738599  0.16835292  0.20103371     0.05500
O1202       O  0.63745637  0.20970193  0.17152884    -0.57100
H1203       H  0.60667515  0.21614323  0.13324386     0.18500
O1204       O  0.55256446  0.15183331  0.14534620    -0.63800
H1205       H  0.58412009  0.14525261  0.18345338     0.16900
C1206       C  0.61625969  0.16596561  0.22508045     0.29200
C1207       C  0.63106242  0.15505374  0.24401173    -0.24700
C1208       C  0.65687640  0.14614645  0.23918649    -0.24000
C1209       C  0.66889963  0.15061323  0.21584631     0.40600
C1210       C  0.65418226  0.16177405  0.19697485    -0.26400
O1211       O  0.59024061  0.17249355  0.22969450    -0.58300
H1212       H  0.62134395  0.15121872  0.26166849     0.16200
O1213       O  0.69358813  0.14124406  0.21020584    -0.59800
H1214       H  0.66297893  0.16351076  0.17853372     0.14700
H1215       H  0.53682533  0.15903486  0.15388827     0.46600
H1216       H  0.59071182  0.18989718  0.23259966     0.41900
H1217       H  0.70652201  0.15190619  0.21850178     0.45400
H1218       H  0.62942690  0.22239681  0.18213046     0.36900
C1219       C  0.57549377  0.27526726  0.98898812    -0.27400
C1220       C  0.57937389  0.29097898  0.96891265     0.02200
C1221       C  0.56779445  0.28570035  0.94573774     0.30300
C1222       C  0.55446418  0.26414141  0.94235261    -0.19200
C1223       C  0.55245685  0.24745189  0.96182691    -0.28600
C1224       C  0.56202210  0.25367219  0.98563429     0.44300
C1225       C  0.59754709  0.31156577  0.97183621     0.05500
O1226       O  0.57178783  0.30032180  0.92563951    -0.57100
H1227       H  0.54741088  0.25965998  0.92381637     0.18500
O1228       O  0.56103640  0.23775189  0.00492605    -0.63800
H1229       H  0.58409817  0.27926394  0.00700454     0.16900
C1230       C  0.58809548  0.33514482  0.97057148     0.29200
C1231       C  0.60486808  0.35394115  0.97748959    -0.24700
C1232       C  0.63103752  0.34950162  0.98586712    -0.24000
C1233       C  0.64133565  0.32618039  0.98408875     0.40600
C1234       C  0.62454691  0.30741609  0.97741675    -0.26400
O1235       O  0.56172884  0.33974134  0.96551383    -0.58300
H1236       H  0.59633303  0.37160788  0.97947081     0.16200
O1237       O  0.66644626  0.32104732  0.99277064    -0.59800
H1238       H  0.63220365  0.28936797  0.97808191     0.14700
H1239       H  0.54423928  0.24157036  0.01404326     0.46600
H1240       H  0.56162609  0.34677170  0.94855446     0.41900
H1241       H  0.67870832  0.32531617  0.97891944     0.45400
H1242       H  0.55431943  0.30825707  0.92279008     0.36900
C1243       C  0.64566589  0.15352331  0.84234338    -0.27400
C1244       C  0.61915687  0.16165017  0.84034852     0.02200
C1245       C  0.60623020  0.16025580  0.81706179     0.30300
C1246       C  0.61910108  0.14937012  0.79675581    -0.19200
C1247       C  0.64454011  0.13913108  0.79947391    -0.28600
C1248       C  0.65823902  0.14200179  0.82216810     0.44300
C1249       C  0.60413588  0.16941678  0.86294006     0.05500
O1250       O  0.58015498  0.16751030  0.81454997    -0.57100
H1251       H  0.60803062  0.14654766  0.77965654     0.18500
O1252       O  0.68284051  0.13160785  0.82550646    -0.63800
H1253       H  0.65599403  0.15474314  0.86003758     0.16900
C1254       C  0.60141552  0.15426536  0.88372295     0.29200
C1255       C  0.58537304  0.16115053  0.90407807    -0.24700
C1256       C  0.57222054  0.18325134  0.90425568    -0.24000
C1257       C  0.57486690  0.19832073  0.88337180     0.40600
C1258       C  0.59077633  0.19139284  0.86303618    -0.26400
O1259       O  0.61350142  0.13230447  0.88386867    -0.58300
H1260       H  0.58368085  0.14937584  0.91996769     0.16200
O1261       O  0.56178947  0.21981040  0.88250913    -0.59800
H1262       H  0.59253479  0.20316671  0.84715181     0.14700
H1263       H  0.67912063  0.11550380  0.83207481     0.46600
H1264       H  0.62936375  0.13408604  0.89473040     0.41900
H1265       H  0.54372336  0.21617612  0.87607264     0.45400
H1266       H  0.56929929  0.15364962  0.81961929     0.36900
C1267       C  0.62592361  0.89565113  0.97072762    -0.27400
C1268       C  0.59807075  0.89585252  0.96768862     0.02200
C1269       C  0.58385908  0.87452704  0.97061459     0.30300
C1270       C  0.59706320  0.85417250  0.97911015    -0.19200
C1271       C  0.62413940  0.85505884  0.98572449    -0.28600
C1272       C  0.63898102  0.87544151  0.97988601     0.44300
C1273       C  0.58362684  0.91866033  0.96412889     0.05500
O1274       O  0.55664295  0.87401249  0.96777590    -0.57100
H1275       H  0.58535697  0.83870519  0.98389065     0.18500
O1276       O  0.66531124  0.87697801  0.98661606    -0.63800
H1277       H  0.63724935  0.91174449  0.96786523     0.16900
C1278       C  0.58721522  0.93790321  0.98077637     0.29200
C1279       C  0.57271990  0.95907052  0.97758286    -0.24700
C1280       C  0.55524305  0.96158843  0.95741535    -0.24000
C1281       C  0.55140283  0.94224951  0.94100742     0.40600
C1282       C  0.56530978  0.92094465  0.94459056    -0.26400
O1283       O  0.60482938  0.93614374  0.00022564    -0.58300
H1284       H  0.57647243  0.97400690  0.98988935     0.16200
O1285       O  0.53439813  0.94425836  0.92106628    -0.59800
H1286       H  0.56232709  0.90637956  0.93162169     0.14700
H1287       H  0.67555404  0.87327628  0.97115939     0.46600
H1288       H  0.62056927  0.94560468  0.99514025     0.41900
H1289       H  0.54610809  0.94613237  0.90619962     0.45400
H1290       H  0.54917718  0.87875957  0.98428173     0.36900
C1291       C  0.56580030  0.04677049  0.85742445    -0.27400
C1292       C  0.58018738  0.02895280  0.84447523     0.02200
C1293       C  0.58185857  0.00611858  0.85468988     0.30300
C1294       C  0.57036949  0.00156012  0.87791505    -0.19200
C1295       C  0.55708639  0.01957345  0.89175886    -0.28600
C1296       C  0.55424008  0.04223821  0.88088991     0.44300
C1297       C  0.59590503  0.03503649  0.82190722     0.05500
O1298       O  0.59559858  0.98829125  0.84252945    -0.57100
H1299       H  0.57274383  0.98380365  0.88533189     0.18500
O1300       O  0.54131850  0.06034175  0.89333647    -0.63800
H1301       H  0.56454075  0.06455325  0.84981968     0.16900
C1302       C  0.58393949  0.04626079  0.80132683     0.29200
C1303       C  0.60000031  0.05659386  0.78293224    -0.24700
C1304       C  0.62798614  0.05618369  0.78505802    -0.24000
C1305       C  0.63983875  0.04246189  0.80396140     0.40600
C1306       C  0.62378706  0.03199575  0.82225132    -0.26400
O1307       O  0.55673145  0.04904768  0.80016867    -0.58300
H1308       H  0.59064198  0.06742040  0.76869337     0.16200
O1309       O  0.66703142  0.04231281  0.80696205    -0.59800
H1310       H  0.63329539  0.02335970  0.83797004     0.14700
H1311       H  0.52236757  0.05917536  0.88819174     0.46600
H1312       H  0.54993796  0.03348927  0.79433297     0.41900
H1313       H  0.67370353  0.02942357  0.79583491     0.45400
H1314       H  0.58265390  0.98143747  0.83058538     0.36900
C1315       C  0.63923630  0.04054628  0.20917780    -0.27400
C1316       C  0.61146204  0.04111474  0.21279839     0.02200
C1317       C  0.60091290  0.04990781  0.23543465     0.30300
C1318       C  0.61796351  0.06005139  0.25312568    -0.19200
C1319       C  0.64549545  0.06183795  0.24828416    -0.28600
C1320       C  0.65627509  0.05071487  0.22684328     0.44300
C1321       C  0.59365308  0.03530573  0.19173302     0.05500
O1322       O  0.57382263  0.05063560  0.23940983    -0.57100
H1323       H  0.60932949  0.06905788  0.26921936     0.18500
O1324       O  0.68293714  0.05271980  0.22129591    -0.63800
H1325       H  0.64753926  0.03372869  0.19180839     0.16900
C1326       C  0.59166252  0.05069916  0.17113474     0.29200
C1327       C  0.57547999  0.04472954  0.15081738    -0.24700
C1328       C  0.56162503  0.02314311  0.15042675    -0.24000
C1329       C  0.56289272  0.00817442  0.17156298     0.40600
C1330       C  0.57863186  0.01445631  0.19210602    -0.26400
O1331       O  0.60548273  0.07165022  0.17075414    -0.58300
H1332       H  0.57484473  0.05647657  0.13483834     0.16200
O1333       O  0.54865057  0.98745405  0.17239566    -0.59800
H1334       H  0.57965729  0.00273188  0.20808762     0.14700
H1335       H  0.69182633  0.03994731  0.23096618     0.46600
H1336       H  0.62233115  0.06798607  0.16164551     0.41900
H1337       H  0.56191397  0.97459587  0.16919586     0.45400
H1338       H  0.56762815  0.06561755  0.23155313     0.36900
C1339       C  0.55516863  0.91844926  0.10890468    -0.27400
C1340       C  0.57303945  0.91353531  0.08927537     0.02200
C1341       C  0.57633554  0.93060301  0.07027006     0.30300
C1342       C  0.56325395  0.95274829  0.07186764    -0.19200
C1343       C  0.54719011  0.95842092  0.09260106    -0.28600
C1344       C  0.54248761  0.94073354  0.11076979     0.44300
C1345       C  0.58880281  0.89094541  0.08876137     0.05500
O1346       O  0.59271148  0.92583013  0.05023173    -0.57100
H1347       H  0.56736619  0.96610815  0.05786981     0.18500
O1348       O  0.52682605  0.94560163  0.13130163    -0.63800
H1349       H  0.55207538  0.90542476  0.12346544     0.16900
C1350       C  0.61696450  0.89134336  0.08849482     0.29200
C1351       C  0.63153374  0.87096485  0.08155745    -0.24700
C1352       C  0.61833307  0.85011214  0.07443979    -0.24000
C1353       C  0.59052895  0.84863443  0.07888827     0.40600
C1354       C  0.57590439  0.86906528  0.08580434    -0.26400
O1355       O  0.63032200  0.91216212  0.09260148    -0.58300
H1356       H  0.65281937  0.87253818  0.07821952     0.16200
O1357       O  0.57695774  0.82847967  0.07237575    -0.59800
H1358       H  0.55429481  0.86828846  0.08655477     0.14700
H1359       H  0.50816733  0.94423264  0.12535726     0.46600
H1360       H  0.63242177  0.91318733  0.11098610     0.41900
H1361       H  0.58110291  0.81683144  0.08568357     0.45400
H1362       H  0.60885934  0.93560821  0.05289193     0.36900
C1363       C  0.03124658  0.46270878  0.17600390    -0.27400
C1364       C  0.01975454  0.47072532  0.19846170     0.02200
C1365       C  0.01144813  0.49479481  0.20037984     0.30300
C1366       C  0.01639310  0.51063599  0.18060123    -0.19200
C1367       C  0.02936948  0.50273881  0.15883791    -0.28600
C1368       C  0.03593816  0.47840215  0.15634134     0.44300
C1369       C  0.01740165  0.45404283  0.21995115     0.05500
O1370       O  0.99982736  0.50319270  0.22202320    -0.57100
H1371       H  0.01157429  0.52931831  0.18292133     0.18500
O1372       O  0.04859965  0.47004719  0.13522541    -0.63800
H1373       H  0.03780255  0.44440086  0.17407302     0.16900
C1374       C  0.00524634  0.43161958  0.21730485     0.29200
C1375       C  0.99984690  0.41785811  0.23849866    -0.24700
C1376       C  0.00549952  0.42652610  0.26253567    -0.24000
C1377       C  0.02104803  0.44716279  0.26480024     0.40600
C1378       C  0.02674091  0.46082955  0.24363403    -0.26400
O1379       O  0.99634257  0.42394817  0.19447359    -0.58300
H1380       H  0.98760171  0.40217944  0.23641489     0.16200
O1381       O  0.02695176  0.45609903  0.28798041    -0.59800
H1382       H  0.03709512  0.47751802  0.24595829     0.14700
H1383       H  0.03403924  0.46615141  0.12343772     0.46600
H1384       H  0.97800365  0.43055699  0.19293184     0.41900
H1385       H  0.04285886  0.44696649  0.29350746     0.45400
H1386       H  0.98235974  0.51011893  0.21710361     0.36900
C1387       C  0.20646763  0.49750895  0.09009220    -0.27400
C1388       C  0.18312215  0.48737841  0.09970296     0.02200
C1389       C  0.18151049  0.46245176  0.10157476     0.30300
C1390       C  0.20172388  0.44801401  0.09123143    -0.19200
C1391       C  0.22368299  0.45814985  0.07899802    -0.28600
C1392       C  0.22684276  0.48305770  0.08003834     0.44300
C1393       C  0.15942471  0.50254292  0.10528272     0.05500
O1394       O  0.15883489  0.45205804  0.11079360    -0.57100
H1395       H  0.19862227  0.42900399  0.09010656     0.18500
O1396       O  0.24843450  0.49344509  0.06869041    -0.63800
H1397       H  0.20815833  0.51665450  0.08894230     0.16900
C1398       C  0.14935199  0.50444105  0.12971371     0.29200
C1399       C  0.12453500  0.51530816  0.13404947    -0.24700
C1400       C  0.10915707  0.52443980  0.11423353    -0.24000
C1401       C  0.12026422  0.52423343  0.08995071     0.40600
C1402       C  0.14522905  0.51325748  0.08562899    -0.26400
O1403       O  0.16297307  0.49458244  0.14932327    -0.58300
H1404       H  0.11667806  0.51552748  0.15295725     0.16200
O1405       O  0.10595718  0.53262958  0.07002342    -0.59800
H1406       H  0.15281849  0.51191303  0.06666673     0.14700
H1407       H  0.24175731  0.49957485  0.05250907     0.46600
H1408       H  0.17500995  0.50727639  0.15532315     0.41900
H1409       H  0.11206763  0.54919121  0.06766589     0.45400
H1410       H  0.16332899  0.44738110  0.12812343     0.36900
C1411       C  0.15131490  0.50138913  0.93569241    -0.27400
C1412       C  0.15280189  0.49323442  0.96033405     0.02200
C1413       C  0.13282440  0.50018310  0.97760488     0.30300
C1414       C  0.11091804  0.51386662  0.96977908    -0.19200
C1415       C  0.10845785  0.52078192  0.94470581    -0.28600
C1416       C  0.12937456  0.51499344  0.92778785     0.44300
C1417       C  0.17475770  0.47694215  0.96787397     0.05500
O1418       O  0.13413508  0.49303631  0.00204430    -0.57100
H1419       H  0.09523085  0.51809645  0.98313522     0.18500
O1420       O  0.12823632  0.52192397  0.90326831    -0.63800
H1421       H  0.16676830  0.49651086  0.92233309     0.16900
C1422       C  0.16916084  0.45368322  0.97586000     0.29200
C1423       C  0.18921934  0.43982065  0.98688620    -0.24700
C1424       C  0.21498883  0.44890463  0.99025515    -0.24000
C1425       C  0.22117495  0.47129474  0.98008167     0.40600
C1426       C  0.20113290  0.48511700  0.96886651    -0.26400
O1427       O  0.14365226  0.44504189  0.97471645    -0.58300
H1428       H  0.18392215  0.42296176  0.99519237     0.16200
O1429       O  0.24587360  0.48100328  0.98385360    -0.59800
H1430       H  0.20575594  0.50291629  0.96263100     0.14700
H1431       H  0.13633187  0.53794488  0.90292457     0.46600
H1432       H  0.14156198  0.43930770  0.95729430     0.41900
H1433       H  0.25675977  0.47578248  0.96927685     0.45400
H1434       H  0.14428437  0.50564303  0.01074504     0.36900
C1435       C  0.03084603  0.45152823  0.82011592    -0.27400
C1436       C  0.03421608  0.47607248  0.81637400     0.02200
C1437       C  0.03268678  0.48492599  0.79177731     0.30300
C1438       C  0.02471184  0.46998109  0.77221448    -0.19200
C1439       C  0.01696283  0.44646064  0.77694699    -0.28600
C1440       C  0.02202910  0.43680019  0.80067103     0.44300
C1441       C  0.03656295  0.49251664  0.83828117     0.05500
O1442       O  0.03615147  0.50863852  0.78702760    -0.57100
H1443       H  0.02059459  0.47778723  0.75414122     0.18500
O1444       O  0.01443594  0.41402261  0.80604213    -0.63800
H1445       H  0.03301015  0.44409029  0.83863017     0.16900
C1446       C  0.01861787  0.49121485  0.85874945     0.29200
C1447       C  0.02106083  0.50682677  0.87917125    -0.24700
C1448       C  0.04174474  0.52343462  0.87998127    -0.24000
C1449       C  0.05906180  0.52530814  0.85921930     0.40600
C1450       C  0.05638990  0.51002929  0.83864614    -0.26400
O1451       O  0.99870944  0.47459987  0.85905944    -0.58300
H1452       H  0.00800384  0.50469659  0.89520960     0.16200
O1453       O  0.07977141  0.54111972  0.85957055    -0.59800
H1454       H  0.07052914  0.51132391  0.82333031     0.14700
H1455       H  0.02927674  0.40380216  0.79981717     0.46600
H1456       H  0.00432166  0.46261488  0.87155439     0.41900
H1457       H  0.07238652  0.55592045  0.85225386     0.45400
H1458       H  0.01829951  0.51604870  0.78961139     0.36900
C1459       C  0.82580240  0.48638042  0.97322545    -0.27400
C1460       C  0.80538276  0.48223133  0.95575754     0.02200
C1461       C  0.80635909  0.49404974  0.93267233     0.30300
C1462       C  0.82796590  0.50878724  0.92694584    -0.19200
C1463       C  0.84896413  0.51228837  0.94401074    -0.28600
C1464       C  0.84738767  0.50129000  0.96756840     0.44300
C1465       C  0.78329537  0.46557254  0.96196416     0.05500
O1466       O  0.78663831  0.49088423  0.91529740    -0.57100
H1467       H  0.82852129  0.51719236  0.90877064     0.18500
O1468       O  0.86755907  0.50375143  0.98460046    -0.63800
H1469       H  0.82512790  0.47783652  0.99131638     0.16900
C1470       C  0.78887164  0.44225658  0.97003130     0.29200
C1471       C  0.76843222  0.42825463  0.98011532    -0.24700
C1472       C  0.74235784  0.43733190  0.98275328    -0.24000
C1473       C  0.73620210  0.45953689  0.97205837     0.40600
C1474       C  0.75659519  0.47351085  0.96179951    -0.26400
O1475       O  0.81447893  0.43339717  0.96905103    -0.58300
H1476       H  0.77361007  0.41136699  0.98853438     0.16200
O1477       O  0.71104593  0.46908149  0.97463785    -0.59800
H1478       H  0.75183831  0.49130922  0.95550461     0.14700
H1479       H  0.86161995  0.51680647  0.99587636     0.46600
H1480       H  0.82089565  0.43358510  0.98655780     0.41900
H1481       H  0.70021889  0.46114729  0.96162006     0.45400
H1482       H  0.79191264  0.47636770  0.90587127     0.36900
C1483       C  0.91752160  0.49906230  0.78250571    -0.27400
C1484       C  0.91055145  0.49118483  0.80646523     0.02200
C1485       C  0.90627108  0.46672945  0.81015950     0.30300
C1486       C  0.91193916  0.45034007  0.79090104    -0.19200
C1487       C  0.92284143  0.45793276  0.76805602    -0.28600
C1488       C  0.92325508  0.48265275  0.76325399     0.44300
C1489       C  0.91057999  0.50785987  0.82821280     0.05500
O1490       O  0.89862013  0.45852340  0.83319032    -0.57100
H1491       H  0.91169867  0.43154391  0.79519723     0.18500
O1492       O  0.93411307  0.49081600  0.74136877    -0.63800
H1493       H  0.92062779  0.51782961  0.77926642     0.16900
C1494       C  0.93322961  0.50970581  0.84368295     0.29200
C1495       C  0.93146501  0.52140321  0.86701136    -0.24700
C1496       C  0.90722958  0.53174309  0.87497191    -0.24000
C1497       C  0.88552609  0.53210287  0.85806036     0.40600
C1498       C  0.88721716  0.52004384  0.83509488    -0.26400
O1499       O  0.95659838  0.49856241  0.83691103    -0.58300
H1500       H  0.94830610  0.52063675  0.87962993     0.16200
O1501       O  0.86161511  0.54239216  0.86483459    -0.59800
H1502       H  0.86974886  0.51910368  0.82327137     0.14700
H1503       H  0.91868014  0.49333279  0.73012690     0.46600
H1504       H  0.96691332  0.51067871  0.82763904     0.41900
H1505       H  0.86423578  0.55970660  0.86265237     0.45400
H1506       H  0.91551684  0.45482988  0.84201824     0.36900
C1507       C  0.90054594  0.46126364  0.24370565    -0.27400
C1508       C  0.90964447  0.48477195  0.24570242     0.02200
C1509       C  0.91928195  0.49260154  0.26898945     0.30300
C1510       C  0.92280183  0.47629039  0.28864893    -0.19200
C1511       C  0.91803479  0.45180210  0.28506469    -0.28600
C1512       C  0.90419567  0.44497943  0.26330176     0.44300
C1513       C  0.91201574  0.49982257  0.22274134     0.05500
O1514       O  0.92800933  0.51548724  0.27189237    -0.57100
H1515       H  0.93363420  0.48204435  0.30504976     0.18500
O1516       O  0.89883995  0.42146413  0.25902564    -0.63800
H1517       H  0.89250667  0.45500273  0.22613056     0.16900
C1518       C  0.92851038  0.49250895  0.20253593     0.29200
C1519       C  0.92891897  0.50556176  0.18017902    -0.24700
C1520       C  0.91277603  0.52586003  0.17721919    -0.24000
C1521       C  0.89740830  0.53386334  0.19786082     0.40600
C1522       C  0.89738678  0.52110247  0.22045825    -0.26400
O1523       O  0.94291311  0.47168004  0.20370957    -0.58300
H1524       H  0.94007107  0.49857327  0.16432897     0.16200
O1525       O  0.88044099  0.55294992  0.19537663    -0.59800
H1526       H  0.88468317  0.52708005  0.23572048     0.14700
H1527       H  0.88247059  0.41820486  0.26890201     0.46600
H1528       H  0.95627592  0.47401319  0.21708485     0.41900
H1529       H  0.89181754  0.56712712  0.19769001     0.45400
H1530       H  0.94677725  0.51531339  0.26583652     0.36900
C1531       C  0.81268864  0.50264488  0.08269051    -0.27400
C1532       C  0.80056407  0.48755821  0.10027571     0.02200
C1533       C  0.81207824  0.48529865  0.12399851     0.30300
C1534       C  0.83522174  0.49783995  0.12987293    -0.19200
C1535       C  0.84769051  0.51294875  0.11238530    -0.28600
C1536       C  0.83600164  0.51528482  0.08854025     0.44300
C1537       C  0.77651808  0.47362925  0.09336931     0.05500
O1538       O  0.80088323  0.47078880  0.14165303    -0.57100
H1539       H  0.84346442  0.49545129  0.14836942     0.18500
O1540       O  0.84732590  0.52942233  0.07063758    -0.63800
H1541       H  0.80426526  0.50433670  0.06416394     0.16900
C1542       C  0.75364254  0.48492834  0.08367478     0.29200
C1543       C  0.73321172  0.47135854  0.07314191    -0.24700
C1544       C  0.73529522  0.44644771  0.07188972    -0.24000
C1545       C  0.75665734  0.43510305  0.08413171     0.40600
C1546       C  0.77707123  0.44868203  0.09482338    -0.26400
O1547       O  0.75192993  0.50924329  0.08277576    -0.58300
H1548       H  0.71714873  0.48038302  0.06343255     0.16200
O1549       O  0.75912897  0.41081368  0.08346616    -0.59800
H1550       H  0.79433403  0.43965944  0.10253758     0.14700
H1551       H  0.83801339  0.54497410  0.07224591     0.46600
H1552       H  0.74695622  0.51427999  0.09997265     0.41900
H1553       H  0.76940408  0.40718644  0.06799846     0.45400
H1554       H  0.78764752  0.48091645  0.15063468     0.36900
C1555       C  0.01566694  0.70834502  0.20448329    -0.27400
C1556       C  0.03463476  0.70620979  0.22374710     0.02200
C1557       C  0.05530520  0.68921336  0.22097365     0.30300
C1558       C  0.05804050  0.67635131  0.19853285    -0.19200
C1559       C  0.04019501  0.67982548  0.17862942    -0.28600
C1560       C  0.01835946  0.69538983  0.18211754     0.44300
C1561       C  0.03290346  0.72234842  0.24605626     0.05500
O1562       O  0.07387708  0.68599848  0.23943052    -0.57100
H1563       H  0.07521320  0.66472053  0.19604333     0.18500
O1564       O  0.00122460  0.70007658  0.16282469    -0.63800
H1565       H  0.99920007  0.72084052  0.20639701     0.16900
C1566       C  0.02905278  0.74707066  0.24313732     0.29200
C1567       C  0.02189170  0.76130382  0.26372790    -0.24700
C1568       C  0.01819246  0.75127389  0.28746338    -0.24000
C1569       C  0.02606029  0.72740247  0.29103968     0.40600
C1570       C  0.03314687  0.71306631  0.27041406    -0.26400
O1571       O  0.03019864  0.75721659  0.21990611    -0.58300
H1572       H  0.01571135  0.77952407  0.26046815     0.16200
O1573       O  0.02356829  0.71723382  0.31418539    -0.59800
H1574       H  0.03658976  0.69426172  0.27330887     0.14700
H1575       H  0.99013909  0.68563282  0.16121624     0.46600
H1576       H  0.04924929  0.76130798  0.21737786     0.41900
H1577       H  0.00590628  0.70936427  0.31416874     0.45400
H1578       H  0.08757244  0.69831882  0.23645597     0.36900
C1579       C  0.16353537  0.76221316  0.08574856    -0.27400
C1580       C  0.17042901  0.73984622  0.09535688     0.02200
C1581       C  0.19765430  0.73331168  0.09642017     0.30300
C1582       C  0.21707118  0.74776699  0.08513192    -0.19200
C1583       C  0.20974864  0.76904704  0.07326165    -0.28600
C1584       C  0.18294880  0.77682421  0.07494454     0.44300
C1585       C  0.14882540  0.72275656  0.10165947     0.05500
O1586       O  0.20510653  0.71167835  0.10592318    -0.57100
H1587       H  0.23740092  0.74118457  0.08344716     0.18500
O1588       O  0.17512983  0.79753705  0.06356817    -0.63800
H1589       H  0.14275542  0.76772347  0.08520155     0.16900
C1590       C  0.14556376  0.71386200  0.12597547     0.29200
C1591       C  0.12406083  0.69891108  0.13154073    -0.24700
C1592       C  0.10523821  0.69252414  0.11317481    -0.24000
C1593       C  0.10925542  0.70064949  0.08853257     0.40600
C1594       C  0.13069886  0.71577847  0.08305101    -0.26400
O1595       O  0.16272675  0.72030592  0.14467011    -0.58300
H1596       H  0.12170712  0.69284996  0.15060957     0.16200
O1597       O  0.09155297  0.69515675  0.06995323    -0.59800
H1598       H  0.13301410  0.72237186  0.06417094     0.14700
H1599       H  0.16797644  0.79268633  0.04707516     0.46600
H1600       H  0.15570884  0.73569059  0.15111477     0.41900
H1601       H  0.09901816  0.68069005  0.06179657     0.45400
H1602       H  0.21359253  0.71529730  0.12219514     0.36900
C1603       C  0.92679053  0.70931498  0.20579246    -0.27400
C1604       C  0.90806880  0.70482264  0.22489356     0.02200
C1605       C  0.88869387  0.68720580  0.22087187     0.30300
C1606       C  0.88726309  0.67559367  0.19757074    -0.19200
C1607       C  0.90526188  0.68087698  0.17810433    -0.28600
C1608       C  0.92535604  0.69766677  0.18256010     0.44300
C1609       C  0.90868162  0.71948133  0.24827655     0.05500
O1610       O  0.86967743  0.68271956  0.23875578    -0.57100
H1611       H  0.87101400  0.66339764  0.19418575     0.18500
O1612       O  0.94222261  0.70431671  0.16362688    -0.63800
H1613       H  0.94197897  0.72267568  0.20855808     0.16900
C1614       C  0.91310072  0.70914565  0.27185895     0.29200
C1615       C  0.91972800  0.72356509  0.29240848    -0.24700
C1616       C  0.92315342  0.74826256  0.28961190    -0.24000
C1617       C  0.91499264  0.75876746  0.26704364     0.40600
C1618       C  0.90809566  0.74441564  0.24655677    -0.26400
O1619       O  0.91388187  0.68491690  0.27445407    -0.58300
H1620       H  0.92626780  0.71504944  0.30946858     0.16200
O1621       O  0.91790521  0.78272594  0.26356702    -0.59800
H1622       H  0.90424944  0.75274750  0.22870302     0.14700
H1623       H  0.93398370  0.71878082  0.15634558     0.46600
H1624       H  0.93257082  0.68019987  0.27050473     0.41900
H1625       H  0.90004559  0.78967681  0.26724251     0.45400
H1626       H  0.87383481  0.66654793  0.24500214     0.36900
C1627       C  0.81568154  0.71657748  0.08264740    -0.27400
C1628       C  0.79507027  0.71933440  0.10039752     0.02200
C1629       C  0.79740854  0.70799253  0.12359622     0.30300
C1630       C  0.82048004  0.69478869  0.12912552    -0.19200
C1631       C  0.84152159  0.69238824  0.11165151    -0.28600
C1632       C  0.83864136  0.70303874  0.08799625     0.44300
C1633       C  0.77126197  0.73405022  0.09430514     0.05500
O1634       O  0.77746433  0.71009314  0.14115646    -0.57100
H1635       H  0.82209798  0.68669671  0.14739812     0.18500
O1636       O  0.85873252  0.70156631  0.07053255    -0.63800
H1637       H  0.81400950  0.72511751  0.06460255     0.16900
C1638       C  0.77358437  0.75869808  0.09064779     0.29200
C1639       C  0.75239013  0.77160214  0.08019371    -0.24700
C1640       C  0.72886604  0.76013935  0.07288581    -0.24000
C1641       C  0.72563945  0.73592779  0.07873880     0.40600
C1642       C  0.74668559  0.72309655  0.08965937    -0.26400
O1643       O  0.79724802  0.76993469  0.09535539    -0.58300
H1644       H  0.75549847  0.79001383  0.07516434     0.16200
O1645       O  0.70303179  0.72417303  0.07148870    -0.59800
H1646       H  0.74456317  0.70416595  0.09258376     0.14700
H1647       H  0.85380592  0.68809929  0.05951512     0.46600
H1648       H  0.79518864  0.77669308  0.11240565     0.41900
H1649       H  0.70756175  0.71681493  0.05511259     0.45400
H1650       H  0.78288418  0.72347426  0.15208171     0.36900
C1651       C  0.88898406  0.68881152  0.83538193    -0.27400
C1652       C  0.90512275  0.70900713  0.83296134     0.02200
C1653       C  0.92379896  0.71386770  0.85209667     0.30300
C1654       C  0.92457550  0.69990188  0.87378385    -0.19200
C1655       C  0.90690401  0.68095285  0.87708291    -0.28600
C1656       C  0.88961799  0.67501803  0.85726804     0.44300
C1657       C  0.90258626  0.72521535  0.81085277     0.05500
O1658       O  0.94036796  0.73313865  0.85057749    -0.57100
H1659       H  0.93737090  0.70526838  0.88904394     0.18500
O1660       O  0.87213108  0.65651349  0.85978985    -0.63800
H1661       H  0.87471036  0.68449320  0.82095102     0.16900
C1662       C  0.90530921  0.71670449  0.78613137     0.29200
C1663       C  0.91063402  0.73267372  0.76657334    -0.24700
C1664       C  0.91390576  0.75709900  0.77141670    -0.24000
C1665       C  0.90591056  0.76584096  0.79504050     0.40600
C1666       C  0.90063232  0.74993910  0.81460070    -0.26400
O1667       O  0.90648033  0.69276633  0.78137475    -0.58300
H1668       H  0.91668471  0.72550413  0.74857156     0.16200
O1669       O  0.90845362  0.78955253  0.80045457    -0.59800
H1670       H  0.89738816  0.75696877  0.83326106     0.14700
H1671       H  0.85492581  0.66390360  0.86501067     0.46600
H1672       H  0.88879606  0.68878988  0.77428260     0.41900
H1673       H  0.88992406  0.79589475  0.80094481     0.45400
H1674       H  0.95187347  0.73024960  0.83571278     0.36900
C1675       C  0.81830262  0.71986559  0.97299425    -0.27400
C1676       C  0.79869962  0.72421438  0.95480713     0.02200
C1677       C  0.80156560  0.71379528  0.93108213     0.30300
C1678       C  0.82404647  0.69972048  0.92558142    -0.19200
C1679       C  0.84395352  0.69538042  0.94360718    -0.28600
C1680       C  0.84066042  0.70537720  0.96765855     0.44300
C1681       C  0.77472930  0.73870612  0.96126483     0.05500
O1682       O  0.78296782  0.71802802  0.91285931    -0.57100
H1683       H  0.82600359  0.69234834  0.90691693     0.18500
O1684       O  0.85971779  0.70214522  0.98566691    -0.63800
H1685       H  0.81616855  0.72766331  0.99145528     0.16900
C1686       C  0.74986533  0.72775165  0.96496320     0.29200
C1687       C  0.72871731  0.74058944  0.97591505    -0.24700
C1688       C  0.73203866  0.76435479  0.98329561    -0.24000
C1689       C  0.75585985  0.77603717  0.97682469     0.40600
C1690       C  0.77716211  0.76313006  0.96613970    -0.26400
O1691       O  0.74711132  0.70383164  0.96078833    -0.58300
H1692       H  0.71078282  0.73120630  0.98132650     0.16200
O1693       O  0.75976971  0.79918201  0.98394591    -0.59800
H1694       H  0.79612306  0.77183363  0.96307957     0.14700
H1695       H  0.85316795  0.68878412  0.99599152     0.46600
H1696       H  0.73522026  0.70252174  0.94609116     0.41900
H1697       H  0.75008618  0.80884656  0.97140515     0.45400
H1698       H  0.77205837  0.70341718  0.91204819     0.36900
C1699       C  0.19960285  0.72606937  0.96778234    -0.27400
C1700       C  0.17460109  0.73613721  0.96241188     0.02200
C1701       C  0.17084555  0.76080073  0.96533426     0.30300
C1702       C  0.19109399  0.77467138  0.97581581    -0.19200
C1703       C  0.21505638  0.76414420  0.98386602    -0.28600
C1704       C  0.21969453  0.73985172  0.97869280     0.44300
C1705       C  0.15181311  0.72050612  0.95636476     0.05500
O1706       O  0.14665722  0.77113123  0.95999063    -0.57100
H1707       H  0.18686668  0.79311515  0.98032858     0.18500
O1708       O  0.24265627  0.72894228  0.98680774    -0.63800
H1709       H  0.20277635  0.70712083  0.96544943     0.16900
C1710       C  0.14955117  0.70987331  0.93272489     0.29200
C1711       C  0.12719071  0.69606283  0.92712534    -0.24700
C1712       C  0.10695435  0.69215385  0.94504497    -0.24000
C1713       C  0.10996607  0.70189823  0.96918146     0.40600
C1714       C  0.13213437  0.71616072  0.97457730    -0.26400
O1715       O  0.16845077  0.71380633  0.91459699    -0.58300
H1716       H  0.12540548  0.68876391  0.90844187     0.16200
O1717       O  0.09059267  0.69896889  0.98709104    -0.59800
H1718       H  0.13383853  0.72411813  0.99297260     0.14700
H1719       H  0.23785109  0.72148010  0.00296732     0.46600
H1720       H  0.18209340  0.70115779  0.91696992     0.41900
H1721       H  0.09664750  0.68517251  0.99710727     0.45400
H1722       H  0.14786327  0.77562293  0.94212506     0.36900
C1723       C  0.02068710  0.75282168  0.82264184    -0.27400
C1724       C  0.02705803  0.72912820  0.81667694     0.02200
C1725       C  0.02708926  0.72191782  0.79146450     0.30300
C1726       C  0.01795352  0.73760060  0.77300165    -0.19200
C1727       C  0.00882613  0.76052640  0.77939139    -0.28600
C1728       C  0.01194566  0.76856853  0.80414511     0.44300
C1729       C  0.03172390  0.71185358  0.83712280     0.05500
O1730       O  0.03300401  0.69883091  0.78511496    -0.57100
H1731       H  0.01497471  0.73091021  0.75420870     0.18500
O1732       O  0.00281043  0.79068278  0.81104853    -0.63800
H1733       H  0.02100252  0.75871795  0.84194095     0.16900
C1734       C  0.05685597  0.70113624  0.84043575     0.29200
C1735       C  0.06159863  0.68708279  0.86149461    -0.24700
C1736       C  0.04160035  0.68358499  0.87973367    -0.24000
C1737       C  0.01582708  0.69281629  0.87540230     0.40600
C1738       C  0.01116153  0.70704313  0.85435036    -0.26400
O1739       O  0.07737030  0.70544692  0.82401935    -0.58300
H1740       H  0.08160254  0.68016998  0.86442933     0.16200
O1741       O  0.99582825  0.69005943  0.89272991    -0.59800
H1742       H  0.99168001  0.71507349  0.85195287     0.14700
H1743       H  0.01802920  0.80146616  0.80793764     0.46600
H1744       H  0.08639677  0.71976086  0.83064646     0.41900
H1745       H  0.98575320  0.67594962  0.88703584     0.45400
H1746       H  0.05108656  0.69932563  0.77748953     0.36900
loop_ 
_geom_bond_atom_site_label_1 
_geom_bond_atom_site_label_2 
_geom_bond_distance 
_geom_bond_site_symmetry_2 
_ccdc_geom_bond_type 
C1            N2   1.349       .  A
C1            N6   1.361       .  A
C1         C1712   1.488       .  S
N2            C3   1.352       .  A
C3            N4   1.368       .  A
C3         C1736   1.484       .  S
N4            C5   1.369       .  A
C5            N6   1.368       .  A
C5           C51   1.489       .  S
C7            N8   1.348       .  A
C7           N12   1.363       .  A
C7         C1679   1.491       .  S
N8            C9   1.350       .  A
C9           N10   1.371       .  A
C9         C1655   1.482       .  S
N10          C11   1.374       .  A
C11          N12   1.371       .  A
C11          C80   1.500       .  S
C13          N14   1.352       .  A
C13          N18   1.371       .  A
C13        C1607   1.483       .  S
N14          C15   1.351       .  A
C15          N16   1.362       .  A
C15        C1631   1.490       .  S
N16          C17   1.369       .  A
C17          N18   1.372       .  A
C17          C71   1.498       .  S
C19          N20   1.369       .  A
C19          N24   1.352       .  A
C19        C1559   1.482       .  S
N20          C21   1.370       .  A
C21          N22   1.369       .  A
C21          C60   1.497       .  S
N22          C23   1.363       .  A
C23          N24   1.351       .  A
C23        C1592   1.496       .  S
C25          N26   1.371       .  A
C25          N30   1.349       .  A
C25        C1520   1.485       .  S
N26          C27   1.375       .  A
C27          N28   1.370       .  A
C27          C77   1.499       .  S
N28          C29   1.363       .  A
C29          N30   1.350       .  A
C29        C1535   1.498       .  S
C31          N32   1.348       .  A
C31          N36   1.361       .  A
C31        C1463   1.490       .  S
N32          C33   1.352       .  A
C33          N34   1.374       .  A
C33        C1496   1.491       .  S
N34          C35   1.376       .  A
C35          N36   1.370       .  A
C35          C74   1.501       .  S
C37          N38   1.349       .  A
C37          N42   1.359       .  A
C37        C1415   1.486       .  S
N38          C39   1.353       .  A
C39          N40   1.370       .  A
C39        C1448   1.478       .  S
N40          C41   1.370       .  A
C41          N42   1.366       .  A
C41          C57   1.489       .  S
C43          N44   1.350       .  A
C43          N48   1.366       .  A
C43        C1367   1.477       .  S
N44          C45   1.349       .  A
C45          N46   1.362       .  A
C45        C1400   1.489       .  S
N46          C47   1.370       .  A
C47          N48   1.369       .  A
C47          C54   1.483       .  S
O49         Zr61   2.442   1_556  S
O49          C51   1.289       .  A
O50         Zr87   2.473   1_455  S
O50          C51   1.296       .  A
O52         Zr64   2.433       .  S
O52          C54   1.286       .  A
O53         Zr88   2.477   1_455  S
O53          C54   1.296       .  A
O55         Zr64   2.437   1_556  S
O55          C57   1.288       .  A
O56         Zr87   2.475   1_455  S
O56          C57   1.295       .  A
O58         Zr61   2.454       .  S
O58          C60   1.291       .  A
O59         Zr88   2.478   1_455  S
O59          C60   1.297       .  A
Zr61         O62   2.436       .  S
Zr61         O63   2.435       .  S
Zr61         O67   2.375       .  S
Zr61         O68   2.370       .  S
Zr61         O91   2.373   1_455  S
Zr61         O93   2.380   1_455  S
O62         H105   0.990       .  S
O63         H104   0.990   1_455  S
O63         H108   0.990       .  S
Zr64         O65   2.438       .  S
Zr64         O66   2.434       .  S
Zr64         O68   2.369       .  S
Zr64         O67   2.366       .  S
Zr64         O92   2.372   1_455  S
Zr64         O94   2.376   1_455  S
O65         H106   0.990       .  S
O65         H109   0.990       .  S
O66          H99   0.990       .  S
O67         Zr87   2.402   1_454  S
O68         Zr88   2.403   1_455  S
O68          H95   0.964       .  S
O69         Zr81   2.452       .  S
O69          C71   1.291       .  A
O70         Zr88   2.482       .  S
O70          C71   1.297       .  A
O72         Zr84   2.456   1_556  S
O72          C74   1.292       .  A
O73         Zr87   2.481       .  S
O73          C74   1.297       .  A
O75         Zr84   2.462       .  S
O75          C77   1.293       .  A
O76         Zr88   2.475       .  S
O76          C77   1.296       .  A
O78         Zr81   2.455   1_556  S
O78          C80   1.292       .  A
O79         Zr87   2.480       .  S
O79          C80   1.297       .  A
Zr81         O82   2.435       .  S
Zr81         O83   2.435       .  S
Zr81         O89   2.376       .  S
Zr81         O90   2.375       .  S
Zr81         O93   2.374       .  S
Zr81         O91   2.378       .  S
O82         H102   0.990       .  S
O82         H107   0.990       .  S
O83         H103   0.990       .  S
Zr84         O85   2.434       .  S
Zr84         O86   2.435       .  S
Zr84         O90   2.377       .  S
Zr84         O89   2.375       .  S
Zr84         O94   2.372       .  S
Zr84         O92   2.373       .  S
O85         H101   0.990       .  S
O86         H100   0.990       .  S
O86         H110   0.990       .  S
Zr87         O90   2.399   1_556  S
Zr87         O92   2.401   1_556  S
Zr87         O93   2.406   1_556  S
Zr88         O89   2.404       .  S
Zr88         O91   2.400       .  S
Zr88         O94   2.398       .  S
O89          H97   0.966       .  S
O92          H96   0.968   1_554  S
O93          H98   0.964   1_554  S
C111        N112   1.359       .  A
C111        N116   1.350   1_545  A
C111       C1328   1.482       .  S
N112        C113   1.364       .  A
C113        N114   1.371   1_545  A
C113        C161   1.489       .  S
N114        C115   1.369       .  A
C115        N116   1.352       .  A
C115       C1343   1.482       .  S
C117        N118   1.362       .  A
C117        N122   1.347   1_545  A
C117       C1295   1.490       .  S
N118        C119   1.369       .  A
C119        N120   1.366       .  A
C119        C190   1.477       .  S
N120        C121   1.361   1_545  A
C121        N122   1.346       .  A
C121       C1280   1.468       .  S
C123        N124   1.370       .  A
C123        N128   1.353       .  A
C123       C1223   1.484       .  S
N124        C125   1.371       .  A
C125        N126   1.364       .  A
C125        C181   1.485       .  S
N126        C127   1.356       .  A
C127        N128   1.348       .  A
C127       C1256   1.478       .  S
C129        N130   1.349       .  A
C129        N134   1.369       .  A
C129       C1184   1.477       .  S
N130        C131   1.348       .  A
C131        N132   1.360       .  A
C131       C1199   1.487       .  S
N132        C133   1.367       .  A
C133        N134   1.373       .  A
C133        C170   1.493       .  S
C135        N136   1.353       .  A
C135        N140   1.369       .  A
C135       C1127   1.487       .  S
N136        C137   1.348       .  A
C137        N138   1.357       .  A
C137       C1151   1.479       .  S
N138        C139   1.365       .  A
C139        N140   1.369       .  A
C139        C187   1.484       .  S
C141        N142   1.352   1_545  A
C141        N146   1.363       .  A
C141       C1079   1.486       .  S
N142        C143   1.354       .  A
C143        N144   1.369       .  A
C143       C1103   1.484       .  S
N144        C145   1.368   1_565  A
C145        N146   1.369       .  A
C145        C184   1.495       .  S
C147        N148   1.350   1_545  A
C147        N152   1.361       .  A
C147       C1031   1.488       .  S
N148        C149   1.352       .  A
C149        N150   1.368       .  A
C149       C1055   1.480       .  S
N150        C151   1.369   1_565  A
C151        N152   1.367       .  A
C151        C167   1.490       .  S
C153        N154   1.350       .  A
C153        N158   1.370       .  A
C153       C1007   1.478       .  S
N154        C155   1.350       .  A
C155        N156   1.358       .  A
C155        C983   1.488       .  S
N156        C157   1.365       .  A
C157        N158   1.372       .  A
C157        C164   1.490       .  S
O159       Zr171   2.456       .  S
O159        C161   1.292       .  A
O160       Zr197   2.455       .  S
O160        C161   1.292       .  A
O162       Zr174   2.450       .  S
O162        C164   1.290       .  A
O163       Zr198   2.465       .  S
O163        C164   1.293       .  A
O165       Zr174   2.455       .  S
O165        C167   1.291       .  A
O166       Zr197   2.459       .  S
O166        C167   1.293       .  A
O168       Zr171   2.459       .  S
O168        C170   1.292       .  A
O169       Zr198   2.462       .  S
O169        C170   1.293       .  A
Zr171       O172   2.434       .  S
Zr171       O173   2.435       .  S
Zr171       O177   2.367       .  S
Zr171       O178   2.375       .  S
Zr171       O201   2.371       .  S
Zr171       O203   2.378       .  S
O172        H215   0.990       .  S
O173        H214   0.990       .  S
O173        H218   0.990       .  S
Zr174       O175   2.437       .  S
Zr174       O176   2.434       .  S
Zr174       O178   2.379       .  S
Zr174       O177   2.362       .  S
Zr174       O202   2.381       .  S
Zr174       O204   2.378       .  S
O175        H216   0.990       .  S
O175        H219   0.990       .  S
O176        H209   0.990       .  S
O177       Zr197   2.390       .  S
O178       Zr198   2.402       .  S
O178        H205   0.967       .  S
O179       Zr191   2.446       .  S
O179        C181   1.289       .  A
O180       Zr198   2.456   1_556  S
O180        C181   1.291       .  A
O182       Zr194   2.449       .  S
O182        C184   1.289       .  A
O183       Zr197   2.473   1_556  S
O183        C184   1.295       .  A
O185       Zr194   2.437       .  S
O185        C187   1.287       .  A
O186       Zr198   2.465   1_556  S
O186        C187   1.293       .  A
O188       Zr191   2.441       .  S
O188        C190   1.287       .  A
O189       Zr197   2.447   1_556  S
O189        C190   1.291       .  A
Zr191       O192   2.437       .  S
Zr191       O193   2.435       .  S
Zr191       O199   2.374       .  S
Zr191       O200   2.369       .  S
Zr191       O203   2.372   1_556  S
Zr191       O201   2.367   1_556  S
O192        H212   0.990       .  S
O192        H217   0.990       .  S
O193        H213   0.990       .  S
Zr194       O195   2.434       .  S
Zr194       O196   2.435       .  S
Zr194       O200   2.364       .  S
Zr194       O199   2.378       .  S
Zr194       O204   2.375   1_556  S
Zr194       O202   2.376   1_556  S
O195        H211   0.990       .  S
O196        H210   0.990       .  S
O196        H220   0.990       .  S
Zr197       O200   2.387   1_554  S
Zr197       O202   2.397       .  S
Zr197       O203   2.404       .  S
Zr198       O199   2.403   1_554  S
Zr198       O201   2.397       .  S
Zr198       O204   2.399       .  S
O199        H207   0.966       .  S
O202        H206   0.966       .  S
O203        H208   0.966       .  S
C221        N222   1.362       .  A
C221        N226   1.344   1_545  A
C221        C935   1.493       .  S
N222        C223   1.371       .  A
C223        N224   1.372       .  A
C223        C277   1.488       .  S
N224        C225   1.367   1_545  A
C225        N226   1.347       .  A
C225        C968   1.481       .  S
C227        N228   1.361       .  A
C227        N232   1.347   1_545  A
C227        C911   1.483       .  S
N228        C229   1.368       .  A
C229        N230   1.374   1_545  A
C229        C294   1.493       .  S
N230        C231   1.371       .  A
C231        N232   1.349       .  A
C231        C887   1.485       .  S
C233        N234   1.349       .  A
C233        N238   1.371       .  A
C233        C839   1.481       .  S
N234        C235   1.348       .  A
C235        N236   1.360       .  A
C235        C863   1.492       .  S
N236        C237   1.367       .  A
C237        N238   1.374       .  A
C237        C297   1.495       .  S
C239        N240   1.369       .  A
C239        N244   1.352       .  A
C239        C791   1.485       .  S
N240        C241   1.371       .  A
C241        N242   1.366       .  A
C241        C274   1.485       .  S
N242        C243   1.359       .  A
C243        N244   1.347       .  A
C243        C824   1.482       .  S
C245        N246   1.373       .  A
C245        N250   1.352       .  A
C245        C752   1.489       .  S
N246        C247   1.376       .  A
C247        N248   1.368       .  A
C247        C291   1.498       .  S
N248        C249   1.359       .  A
C249        N250   1.349       .  A
C249        C767   1.492       .  S
C251        N252   1.360       .  A
C251        N256   1.348   1_545  A
C251        C704   1.482       .  S
N252        C253   1.368       .  A
C253        N254   1.374   1_545  A
C253        C300   1.497       .  S
N254        C255   1.373       .  A
C255        N256   1.351       .  A
C255        C728   1.483       .  S
C257        N258   1.352   1_545  A
C257        N262   1.359       .  A
C257        C647   1.493       .  S
N258        C259   1.353       .  A
C259        N260   1.370       .  A
C259        C680   1.488       .  S
N260        C261   1.372   1_565  A
C261        N262   1.365       .  A
C261        C271   1.492       .  S
C263        N264   1.366       .  A
C263        N268   1.351       .  A
C263        C599   1.482       .  S
N264        C265   1.368       .  A
C265        N266   1.367       .  A
C265        C280   1.486       .  S
N266        C267   1.362       .  A
C267        N268   1.348       .  A
C267        C623   1.484       .  S
O269       Zr281   2.457       .  S
O269        C271   1.292       .  A
O270       Zr307   2.460   1_455  S
O270        C271   1.292       .  A
O272       Zr284   2.456       .  S
O272        C274   1.291       .  A
O273       Zr308   2.458   1_455  S
O273        C274   1.292       .  A
O275       Zr284   2.438       .  S
O275        C277   1.288       .  A
O276       Zr307   2.477   1_455  S
O276        C277   1.296       .  A
O278       Zr281   2.449       .  S
O278        C280   1.290       .  A
O279       Zr308   2.463   1_455  S
O279        C280   1.294       .  A
Zr281       O282   2.435       .  S
Zr281       O283   2.434       .  S
Zr281       O287   2.369       .  S
Zr281       O288   2.375       .  S
Zr281       O311   2.377   1_455  S
Zr281       O313   2.374   1_455  S
O282        H325   0.990       .  S
O283        H324   0.990       .  S
O283        H328   0.990       .  S
Zr284       O285   2.439       .  S
Zr284       O286   2.435       .  S
Zr284       O288   2.368       .  S
Zr284       O287   2.376       .  S
Zr284       O312   2.378   1_455  S
Zr284       O314   2.370   1_455  S
O285        H326   0.990       .  S
O285        H329   0.990       .  S
O286        H319   0.990       .  S
O287       Zr307   2.397   1_455  S
O288       Zr308   2.403   1_455  S
O288        H315   0.964       .  S
O289       Zr301   2.458       .  S
O289        C291   1.293       .  A
O290       Zr308   2.468       .  S
O290        C291   1.294       .  A
O292       Zr304   2.462       .  S
O292        C294   1.293       .  A
O293       Zr307   2.462       .  S
O293        C294   1.293       .  A
O295       Zr304   2.455       .  S
O295        C297   1.292       .  A
O296       Zr308   2.469       .  S
O296        C297   1.294       .  A
O298       Zr301   2.449       .  S
O298        C300   1.291       .  A
O299       Zr307   2.480       .  S
O299        C300   1.296       .  A
Zr301       O302   2.436       .  S
Zr301       O303   2.434       .  S
Zr301       O309   2.371       .  S
Zr301       O310   2.373       .  S
Zr301       O313   2.378       .  S
Zr301       O311   2.372       .  S
O302        H322   0.990       .  S
O302        H327   0.990       .  S
O303        H323   0.990       .  S
Zr304       O305   2.435       .  S
Zr304       O306   2.436       .  S
Zr304       O310   2.371       .  S
Zr304       O309   2.379       .  S
Zr304       O314   2.377       .  S
Zr304       O312   2.376       .  S
O305        H321   0.990       .  S
O306        H320   0.990       .  S
O306        H330   0.990       .  S
Zr307       O310   2.395       .  S
Zr307       O312   2.403       .  S
Zr307       O313   2.403       .  S
Zr308       O309   2.399       .  S
Zr308       O311   2.397       .  S
Zr308       O314   2.397       .  S
O309        H317   0.967       .  S
O312        H316   0.965       .  S
O313        H318   0.966       .  S
C331       C1511   1.494       .  S
C331        C332   1.391       .  A
C331        C336   1.428       .  A
C332        C333   1.385       .  A
C332        H351   1.089       .  S
C333       C1376   1.480   1_655  S
C333        C334   1.411       .  A
C334        C335   1.428       .  A
C334        C341   1.403   1_655  A
C335        C336   1.431       .  A
C335        C340   1.425       .  A
C336        C337   1.408       .  A
C337        C338   1.409       .  A
C337        H347   1.083       .  S
C338        C339   1.408       .  A
C338        H348   1.083       .  S
C339        C340   1.429       .  A
C339        C346   1.427       .  A
C340        C343   1.428       .  A
C341        C342   1.396       .  A
C341        H349   1.083       .  S
C342        C343   1.403   1_455  A
C342        H350   1.083       .  S
C343        C344   1.411       .  A
C344        C608   1.481   1_655  S
C344        C345   1.384       .  A
C345        C346   1.392       .  A
C345        H352   1.088       .  S
C346        C743   1.491       .  S
C353        C992   1.472       .  S
C353        C354   1.389       .  A
C353        C358   1.408       .  A
C354        C355   1.390       .  A
C354        H373   1.088       .  S
C355       C1040   1.478       .  S
C355        C356   1.414       .  A
C356        C357   1.425       .  A
C356        C363   1.404       .  A
C357        C358   1.422       .  A
C357        C362   1.417       .  A
C358        C359   1.404       .  A
C359        C360   1.396       .  A
C359        H369   1.083       .  S
C360        C361   1.405       .  A
C360        H370   1.083       .  S
C361        C362   1.425       .  A
C361        C368   1.413       .  A
C362        C365   1.422       .  A
C363        C364   1.398       .  A
C363        H371   1.083       .  S
C364        C365   1.406       .  A
C364        H372   1.083       .  S
C365        C366   1.412       .  A
C366        C656   1.477       .  S
C366        C367   1.392       .  A
C367        C368   1.392       .  A
C367        H374   1.087       .  S
C368        C632   1.481       .  S
C375       C1424   1.483   1_554  S
C375        C376   1.389       .  A
C375        C380   1.415       .  A
C376        C377   1.393       .  A
C376        H395   1.087       .  S
C377       C1391   1.484       .  S
C377        C378   1.418       .  A
C378        C379   1.426       .  A
C378        C385   1.407       .  A
C379        C380   1.427       .  A
C379        C384   1.422       .  A
C380        C381   1.405   1_554  A
C381        C382   1.398       .  A
C381        H391   1.083       .  S
C382        C383   1.405   1_556  A
C382        H392   1.083       .  S
C383        C384   1.426       .  A
C383        C390   1.413       .  A
C384        C387   1.428       .  A
C385        C386   1.402       .  A
C385        H393   1.083       .  S
C386        C387   1.405       .  A
C386        H394   1.083       .  S
C387        C388   1.419       .  A
C388       C1016   1.487       .  S
C388        C389   1.391       .  A
C389        C390   1.388       .  A
C389        H396   1.088       .  S
C390       C1136   1.479   1_554  S
C397       C1319   1.478       .  S
C397        C398   1.391       .  A
C397        C402   1.413       .  A
C398        C399   1.390       .  A
C398        H417   1.087       .  S
C399       C1208   1.479       .  S
C399        C400   1.414       .  A
C400        C401   1.425       .  A
C400        C407   1.405       .  A
C401        C402   1.424       .  A
C401        C406   1.419       .  A
C402        C403   1.405       .  A
C403        C404   1.398       .  A
C403        H413   1.083       .  S
C404        C405   1.405       .  A
C404        H414   1.083       .  S
C405        C406   1.425       .  A
C405        C412   1.413       .  A
C406        C409   1.425       .  A
C407        C408   1.398       .  A
C407        H415   1.083       .  S
C408        C409   1.405       .  A
C408        H416   1.083       .  S
C409        C410   1.413       .  A
C410        C776   1.479       .  S
C410        C411   1.390       .  A
C411        C412   1.391       .  A
C411        H418   1.088       .  S
C412        C695   1.479       .  S
C419       C1568   1.486   1_655  S
C419        C420   1.390       .  A
C419        C424   1.418       .  A
C420        C421   1.391       .  A
C420        H439   1.088       .  S
C421       C1616   1.491       .  S
C421        C422   1.421       .  A
C422        C423   1.430       .  A
C422        C429   1.406       .  A
C423        C424   1.427       .  A
C423        C428   1.425       .  A
C424        C425   1.406   1_655  A
C425        C426   1.403       .  A
C425        H435   1.083       .  S
C426        C427   1.405   1_455  A
C426        H436   1.083       .  S
C427        C428   1.430       .  A
C427        C434   1.421       .  A
C428        C431   1.427       .  A
C429        C430   1.402       .  A
C429        H437   1.083       .  S
C430        C431   1.406       .  A
C430        H438   1.083       .  S
C431        C432   1.418       .  A
C432        C719   1.486       .  S
C432        C433   1.389       .  A
C433        C434   1.389       .  A
C433        H440   1.088       .  S
C434        C671   1.489   1_655  S
C441       C1088   1.485       .  S
C441        C442   1.392       .  A
C441        C446   1.415       .  A
C442        C443   1.393       .  A
C442        H461   1.087       .  S
C443       C1160   1.477       .  S
C443        C444   1.412       .  A
C444        C445   1.423       .  A
C444        C451   1.406       .  A
C445        C446   1.427       .  A
C445        C450   1.419       .  A
C446        C447   1.404       .  A
C447        C448   1.398       .  A
C447        H457   1.083       .  S
C448        C449   1.406       .  A
C448        H458   1.083       .  S
C449        C450   1.422       .  A
C449        C456   1.413       .  A
C450        C453   1.425       .  A
C451        C452   1.397       .  A
C451        H459   1.083       .  S
C452        C453   1.405       .  A
C452        H460   1.083       .  S
C453        C454   1.415       .  A
C454        C815   1.483       .  S
C454        C455   1.393       .  A
C455        C456   1.394       .  A
C455        H462   1.087       .  S
C456        C944   1.479       .  S
C463       C1439   1.483   1_655  S
C463        C464   1.387       .  A
C463        C468   1.413       .  A
C464        C465   1.391       .  A
C464        H483   1.088       .  S
C465       C1487   1.490       .  S
C465        C466   1.424       .  A
C466        C467   1.430       .  A
C466        C473   1.407       .  A
C467        C468   1.428       .  A
C467        C472   1.424       .  A
C468        C469   1.404   1_655  A
C469        C470   1.397       .  A
C469        H479   1.083       .  S
C470        C471   1.403   1_455  A
C470        H480   1.083       .  S
C471        C472   1.428       .  A
C471        C478   1.413       .  A
C472        C475   1.429       .  A
C473        C474   1.407       .  A
C473        H481   1.083       .  S
C474        C475   1.407       .  A
C474        H482   1.083       .  S
C475        C476   1.424       .  A
C476        C848   1.489       .  S
C476        C477   1.391       .  A
C477        C478   1.385       .  A
C477        H484   1.088       .  S
C478        C800   1.482   1_655  S
C485       C1703   1.482   1_554  S
C485        C486   1.392       .  A
C485        C490   1.417       .  A
C486        C487   1.391       .  A
C486        H505   1.087       .  S
C487       C1583   1.487       .  S
C487        C488   1.417       .  A
C488        C489   1.428       .  A
C488        C495   1.405       .  A
C489        C490   1.425       .  A
C489        C494   1.423       .  A
C490        C491   1.407   1_554  A
C491        C492   1.402       .  A
C491        H501   1.083       .  S
C492        C493   1.405   1_556  A
C492        H502   1.083       .  S
C493        C494   1.429       .  A
C493        C500   1.420       .  A
C494        C497   1.425       .  A
C495        C496   1.400       .  A
C495        H503   1.083       .  S
C496        C497   1.406       .  A
C496        H504   1.083       .  S
C497        C498   1.414       .  A
C498       C1064   1.482       .  S
C498        C499   1.391       .  A
C499        C500   1.390       .  A
C499        H506   1.088       .  S
C500       C1112   1.489   1_554  S
C507       C1544   1.483       .  S
C507        C508   1.392       .  A
C507        C512   1.416       .  A
C508        C509   1.391       .  A
C508        H527   1.087       .  S
C509       C1472   1.484   1_554  S
C509        C510   1.416       .  A
C510        C511   1.427       .  A
C510        C517   1.405   1_554  A
C511        C512   1.426       .  A
C511        C516   1.422       .  A
C512        C513   1.406       .  A
C513        C514   1.400       .  A
C513        H523   1.083       .  S
C514        C515   1.404       .  A
C514        H524   1.083       .  S
C515        C516   1.428       .  A
C515        C522   1.417       .  A
C516        C519   1.426       .  A
C517        C518   1.400       .  A
C517        H525   1.083       .  S
C518        C519   1.405   1_556  A
C518        H526   1.083       .  S
C519        C520   1.415       .  A
C520       C1232   1.482   1_554  S
C520        C521   1.388       .  A
C521        C522   1.391       .  A
C521        H528   1.088       .  S
C522       C1175   1.487       .  S
C529       C1664   1.488       .  S
C529        C530   1.392       .  A
C529        C534   1.422       .  A
C530        C531   1.387       .  A
C530        H549   1.088       .  S
C531       C1727   1.481   1_655  S
C531        C532   1.412       .  A
C532        C533   1.427       .  A
C532        C539   1.404   1_655  A
C533        C534   1.428       .  A
C533        C538   1.422       .  A
C534        C535   1.407       .  A
C535        C536   1.406       .  A
C535        H545   1.083       .  S
C536        C537   1.407       .  A
C536        H546   1.083       .  S
C537        C538   1.428       .  A
C537        C544   1.423       .  A
C538        C541   1.426       .  A
C539        C540   1.396       .  A
C539        H547   1.083       .  S
C540        C541   1.404   1_455  A
C540        H548   1.083       .  S
C541        C542   1.411       .  A
C542        C959   1.479   1_655  S
C542        C543   1.388       .  A
C543        C544   1.392       .  A
C543        H550   1.088       .  S
C544        C896   1.490       .  S
C551       C1247   1.476       .  S
C551        C552   1.390       .  A
C551        C556   1.411       .  A
C552        C553   1.391       .  A
C552        H571   1.087       .  S
C553       C1304   1.477       .  S
C553        C554   1.412       .  A
C554        C555   1.424       .  A
C554        C561   1.405       .  A
C555        C556   1.423       .  A
C555        C560   1.417       .  A
C556        C557   1.405       .  A
C557        C558   1.396       .  A
C557        H567   1.083       .  S
C558        C559   1.404       .  A
C558        H568   1.083       .  S
C559        C560   1.425       .  A
C559        C566   1.412       .  A
C560        C563   1.423       .  A
C561        C562   1.397       .  A
C561        H569   1.083       .  S
C562        C563   1.405       .  A
C562        H570   1.083       .  S
C563        C564   1.410       .  A
C564        C920   1.475       .  S
C564        C565   1.390       .  A
C565        C566   1.389       .  A
C565        H572   1.087       .  S
C566        C872   1.478       .  S
C573       C1640   1.480       .  S
C573        C574   1.392       .  A
C573        C578   1.416       .  A
C574        C575   1.391       .  A
C574        H593   1.087       .  S
C575       C1688   1.482   1_554  S
C575        C576   1.413       .  A
C576        C577   1.427       .  A
C576        C583   1.404   1_554  A
C577        C578   1.424       .  A
C577        C582   1.420       .  A
C578        C579   1.407       .  A
C579        C580   1.401       .  A
C579        H589   1.083       .  S
C580        C581   1.405       .  A
C580        H590   1.083       .  S
C581        C582   1.427       .  A
C581        C588   1.418       .  A
C582        C585   1.423       .  A
C583        C584   1.395       .  A
C583        H591   1.083       .  S
C584        C585   1.405   1_556  A
C584        H592   1.083       .  S
C585        C586   1.410       .  A
C586       C1271   1.477   1_554  S
C586        C587   1.391       .  A
C587        C588   1.392       .  A
C587        H594   1.087       .  S
C588       C1352   1.486       .  S
C595        C596   1.409       .  A
C595        C600   1.404       .  A
C595        H605   1.082   1_455  S
C596        C601   1.489       .  S
C596        C597   1.406       .  A
C597        C598   1.399       .  A
C597        O602   1.372       .  S
C598        C599   1.408       .  A
C598        H603   1.084       .  S
C599        C600   1.408       .  A
C600        O604   1.371   1_455  S
C601        C606   1.410       .  A
C601        C610   1.404       .  A
O602        H618   0.992       .  S
O604        H615   0.992       .  S
C606        C607   1.403       .  A
C606        O611   1.371       .  S
C607        C608   1.403       .  A
C607        H612   1.084   1_455  S
C608        C609   1.411       .  A
C609        C610   1.401       .  A
C609        O613   1.372       .  S
C610        H614   1.083       .  S
O611        H616   0.992       .  S
O613        H617   0.991       .  S
C619        C620   1.397       .  A
C619        C624   1.402       .  A
C619        H629   1.084       .  S
C620        C625   1.476       .  S
C620        C621   1.408       .  A
C621        C622   1.401       .  A
C621        O626   1.372       .  S
C622        C623   1.403       .  A
C622        H627   1.083       .  S
C623        C624   1.417       .  A
C624        O628   1.373       .  S
C625        C630   1.407       .  A
C625        C634   1.399       .  A
O626        H642   0.992       .  S
O628        H639   0.992       .  S
C630        C631   1.401       .  A
C630        O635   1.371       .  S
C631        C632   1.403       .  A
C631        H636   1.084       .  S
C632        C633   1.411       .  A
C633        C634   1.400       .  A
C633        O637   1.373       .  S
C634        H638   1.084       .  S
O635        H640   0.992       .  S
O637        H641   0.992       .  S
C643        C644   1.403       .  A
C643        C648   1.404       .  A
C643        H653   1.084       .  S
C644        C649   1.476       .  S
C644        C645   1.399       .  A
C645        C646   1.398   1_545  A
C645        O650   1.371   1_545  S
C646        C647   1.412   1_565  A
C646        H651   1.083       .  S
C647        C648   1.415       .  A
C648        O652   1.371       .  S
C649        C654   1.406       .  A
C649        C658   1.401       .  A
O650        H666   0.992       .  S
O652        H663   0.992       .  S
C654        C655   1.400       .  A
C654        O659   1.372       .  S
C655        C656   1.403       .  A
C655        H660   1.084       .  S
C656        C657   1.409       .  A
C657        C658   1.399       .  A
C657        O661   1.371       .  S
C658        H662   1.084       .  S
O659        H664   0.992       .  S
O661        H665   0.992       .  S
C667        C668   1.404       .  A
C667        C672   1.405       .  A
C667        H677   1.083       .  S
C668        C673   1.491       .  S
C668        C669   1.407       .  A
C669        C670   1.407       .  A
C669        O674   1.371       .  S
C670        C671   1.411       .  A
C670        H675   1.084       .  S
C671        C672   1.410       .  A
C672        O676   1.372       .  S
C673        C678   1.405       .  A
C673        C682   1.408       .  A
O674        H690   0.991       .  S
O676        H687   0.992       .  S
C678        C679   1.404       .  A
C678        O683   1.371       .  S
C679        C680   1.409       .  A
C679        H684   1.084       .  S
C680        C681   1.408       .  A
C681        C682   1.409       .  A
C681        O685   1.370   1_455  S
C682        H686   1.084   1_455  S
O683        H688   0.992       .  S
O685        H689   0.992   1_655  S
C691        C692   1.403       .  A
C691        C696   1.404       .  A
C691        H701   1.083       .  S
C692        C697   1.482       .  S
C692        C693   1.407       .  A
C693        C694   1.401       .  A
C693        O698   1.372       .  S
C694        C695   1.403       .  A
C694        H699   1.084       .  S
C695        C696   1.410       .  A
C696        O700   1.372       .  S
C697        C702   1.411       .  A
C697        C706   1.399       .  A
O698        H714   0.992       .  S
O700        H711   0.992       .  S
C702        C703   1.402       .  A
C702        O707   1.372       .  S
C703        C704   1.403       .  A
C703        H708   1.084       .  S
C704        C705   1.414       .  A
C705        C706   1.402       .  A
C705        O709   1.372   1_545  S
C706        H710   1.084       .  S
O707        H712   0.992       .  S
O709        H713   0.992       .  S
C715        C716   1.406       .  A
C715        C720   1.405       .  A
C715        H725   1.083       .  S
C716        C721   1.497       .  S
C716        C717   1.412       .  A
C717        C718   1.404       .  A
C717        O722   1.371       .  S
C718        C719   1.405       .  A
C718        H723   1.084       .  S
C719        C720   1.412       .  A
C720        O724   1.371       .  S
C721        C726   1.408       .  A
C721        C730   1.410       .  A
O722        H738   0.992       .  S
O724        H735   0.992       .  S
C726        C727   1.405       .  A
C726        O731   1.372       .  S
C727        C728   1.408       .  A
C727        H732   1.084       .  S
C728        C729   1.407       .  A
C729        C730   1.407       .  A
C729        O733   1.371       .  S
C730        H734   1.083       .  S
O731        H736   0.992       .  S
O733        H737   0.992       .  S
C739        C740   1.402       .  A
C739        C744   1.408       .  A
C739        H749   1.083       .  S
C740        C745   1.495       .  S
C740        C741   1.410       .  A
C741        C742   1.408       .  A
C741        O746   1.372       .  S
C742        C743   1.407       .  A
C742        H747   1.084       .  S
C743        C744   1.417       .  A
C744        O748   1.372       .  S
C745        C750   1.413       .  A
C745        C754   1.400       .  A
O746        H762   0.992       .  S
O748        H759   0.991       .  S
C750        C751   1.410       .  A
C750        O755   1.372       .  S
C751        C752   1.404       .  A
C751        H756   1.080       .  S
C752        C753   1.414       .  A
C753        C754   1.404       .  A
C753        O757   1.372       .  S
C754        H758   1.083       .  S
O755        H760   0.992       .  S
O757        H761   0.992       .  S
C763        C764   1.405       .  A
C763        C768   1.406       .  A
C763        H773   1.084       .  S
C764        C769   1.479       .  S
C764        C765   1.400       .  A
C765        C766   1.398       .  A
C765        O770   1.371       .  S
C766        C767   1.412       .  A
C766        H771   1.083       .  S
C767        C768   1.413       .  A
C768        O772   1.371       .  S
C769        C774   1.406       .  A
C769        C778   1.402       .  A
O770        H786   0.992       .  S
O772        H783   0.992       .  S
C774        C775   1.401       .  A
C774        O779   1.372       .  S
C775        C776   1.405       .  A
C775        H780   1.084       .  S
C776        C777   1.408       .  A
C777        C778   1.401       .  A
C777        O781   1.371       .  S
C778        H782   1.083       .  S
O779        H784   0.992       .  S
O781        H785   0.992       .  S
C787        C788   1.400       .  A
C787        C792   1.397       .  A
C787        H797   1.083       .  S
C788        C793   1.495       .  S
C788        C789   1.418       .  A
C789        C790   1.409       .  A
C789        O794   1.371       .  S
C790        C791   1.402       .  A
C790        H795   1.083       .  S
C791        C792   1.414       .  A
C792        O796   1.373       .  S
C793        C798   1.413       .  A
C793        C802   1.406       .  A
O794        H810   0.991   1_455  S
O796        H807   0.992       .  S
C798        C799   1.402       .  A
C798        O803   1.372       .  S
C799        C800   1.403       .  A
C799        H804   1.084       .  S
C800        C801   1.410       .  A
C801        C802   1.404       .  A
C801        O805   1.372       .  S
C802        H806   1.083       .  S
O803        H808   0.992   1_455  S
O805        H809   0.992       .  S
C811        C812   1.403       .  A
C811        C816   1.399       .  A
C811        H821   1.084       .  S
C812        C817   1.482       .  S
C812        C813   1.407       .  A
C813        C814   1.405       .  A
C813        O818   1.372       .  S
C814        C815   1.406       .  A
C814        H819   1.083       .  S
C815        C816   1.407       .  A
C816        O820   1.372       .  S
C817        C822   1.410       .  A
C817        C826   1.400       .  A
O818        H834   0.992       .  S
O820        H831   0.992       .  S
C822        C823   1.400       .  A
C822        O827   1.372       .  S
C823        C824   1.402       .  A
C823        H828   1.084       .  S
C824        C825   1.415       .  A
C825        C826   1.404       .  A
C825        O829   1.373       .  S
C826        H830   1.084       .  S
O827        H832   0.992       .  S
O829        H833   0.992       .  S
C835        C836   1.409       .  A
C835        C840   1.408       .  A
C835        H845   1.083       .  S
C836        C841   1.499       .  S
C836        C837   1.409       .  A
C837        C838   1.407       .  A
C837        O842   1.371       .  S
C838        C839   1.407       .  A
C838        H843   1.084       .  S
C839        C840   1.408       .  A
C840        O844   1.372       .  S
C841        C846   1.411       .  A
C841        C850   1.405       .  A
O842        H858   0.992       .  S
O844        H855   0.992       .  S
C846        C847   1.408       .  A
C846        O851   1.372       .  S
C847        C848   1.406       .  A
C847        H852   1.084       .  S
C848        C849   1.415       .  A
C849        C850   1.407       .  A
C849        O853   1.371       .  S
C850        H854   1.083       .  S
O851        H856   0.992       .  S
O853        H857   0.991       .  S
C859        C860   1.394       .  A
C859        C864   1.397       .  A
C859        H869   1.084       .  S
C860        C865   1.476       .  S
C860        C861   1.408       .  A
C861        C862   1.402       .  A
C861        O866   1.371       .  S
C862        C863   1.407       .  A
C862        H867   1.083       .  S
C863        C864   1.422       .  A
C864        O868   1.371       .  S
C865        C870   1.408       .  A
C865        C874   1.399       .  A
O866        H882   0.992       .  S
O868        H879   0.992       .  S
C870        C871   1.403       .  A
C870        O875   1.371       .  S
C871        C872   1.404       .  A
C871        H876   1.084       .  S
C872        C873   1.409       .  A
C873        C874   1.398       .  A
C873        O877   1.373       .  S
C874        H878   1.084       .  S
O875        H880   0.992       .  S
O877        H881   0.992       .  S
C883        C884   1.409       .  A
C883        C888   1.409       .  A
C883        H893   1.084       .  S
C884        C889   1.492       .  S
C884        C885   1.405       .  A
C885        C886   1.403       .  A
C885        O890   1.372       .  S
C886        C887   1.409       .  A
C886        H891   1.084       .  S
C887        C888   1.408       .  A
C888        O892   1.371       .  S
C889        C894   1.408       .  A
C889        C898   1.405       .  A
O890        H906   0.991       .  S
O892        H903   0.992       .  S
C894        C895   1.405       .  A
C894        O899   1.372       .  S
C895        C896   1.410       .  A
C895        H900   1.084       .  S
C896        C897   1.411       .  A
C897        C898   1.407       .  A
C897        O901   1.372       .  S
C898        H902   1.083       .  S
O899        H904   0.992       .  S
O901        H905   0.992       .  S
C907        C908   1.395       .  A
C907        C912   1.399       .  A
C907        H917   1.084   1_545  S
C908        C913   1.474       .  S
C908        C909   1.409       .  A
C909        C910   1.402       .  A
C909        O914   1.371       .  S
C910        C911   1.404       .  A
C910        H915   1.083       .  S
C911        C912   1.417       .  A
C912        O916   1.373   1_545  S
C913        C918   1.404       .  A
C913        C922   1.402       .  A
O914        H930   0.992       .  S
O916        H927   0.992       .  S
C918        C919   1.400       .  A
C918        O923   1.371       .  S
C919        C920   1.406       .  A
C919        H924   1.084       .  S
C920        C921   1.407       .  A
C921        C922   1.399       .  A
C921        O925   1.372       .  S
C922        H926   1.084       .  S
O923        H928   0.991       .  S
O925        H929   0.992       .  S
C931        C932   1.406       .  A
C931        C936   1.406       .  A
C931        H941   1.084       .  S
C932        C937   1.477       .  S
C932        C933   1.398       .  A
C933        C934   1.396       .  A
C933        O938   1.372   1_545  S
C934        C935   1.415       .  A
C934        H939   1.083   1_545  S
C935        C936   1.411       .  A
C936        O940   1.371       .  S
C937        C942   1.405       .  A
C937        C946   1.402       .  A
O938        H954   0.992       .  S
O940        H951   0.992       .  S
C942        C943   1.400       .  A
C942        O947   1.371       .  S
C943        C944   1.405       .  A
C943        H948   1.083       .  S
C944        C945   1.408       .  A
C945        C946   1.400       .  A
C945        O949   1.372       .  S
C946        H950   1.084       .  S
O947        H952   0.992       .  S
O949        H953   0.991       .  S
C955        C956   1.406       .  A
C955        C960   1.399       .  A
C955        H965   1.083       .  S
C956        C961   1.491       .  S
C956        C957   1.410       .  A
C957        C958   1.403       .  A
C957        O962   1.371       .  S
C958        C959   1.406       .  A
C958        H963   1.084       .  S
C959        C960   1.407       .  A
C960        O964   1.373       .  S
C961        C966   1.418       .  A
C961        C970   1.399       .  A
O962        H978   0.992       .  S
O964        H975   0.992   1_455  S
C966        C967   1.409       .  A
C966        O971   1.371       .  S
C967        C968   1.401       .  A
C967        H972   1.083       .  S
C968        C969   1.416       .  A
C969        C970   1.392       .  A
C969        O973   1.373       .  S
C970        H974   1.084       .  S
O971        H976   0.992   1_455  S
O973        H977   0.992       .  S
C979        C980   1.404       .  A
C979        C984   1.403       .  A
C979        H989   1.084       .  S
C980        C985   1.473       .  S
C980        C981   1.399       .  A
C981        C982   1.395       .  A
C981        O986   1.372       .  S
C982        C983   1.411       .  A
C982        H987   1.083       .  S
C983        C984   1.413       .  A
C984        O988   1.371       .  S
C985        C990   1.404       .  A
C985        C994   1.403       .  A
O986       H1002   0.992       .  S
O988        H999   0.992       .  S
C990        C991   1.396       .  A
C990        O995   1.372       .  S
C991        C992   1.404       .  A
C991        H996   1.084       .  S
C992        C993   1.406       .  A
C993        C994   1.400       .  A
C993        O997   1.371       .  S
C994        H998   1.084       .  S
O995       H1000   0.992       .  S
O997       H1001   0.992       .  S
C1003      C1004   1.406       .  A
C1003      C1008   1.405       .  A
C1003      H1013   1.083       .  S
C1004      C1009   1.499       .  S
C1004      C1005   1.418       .  A
C1005      C1006   1.405       .  A
C1005      O1010   1.374       .  S
C1006      C1007   1.402       .  A
C1006      H1011   1.084       .  S
C1007      C1008   1.409       .  A
C1008      O1012   1.371       .  S
C1009      C1014   1.413       .  A
C1009      C1018   1.405       .  A
O1010      H1026   0.991       .  S
O1012      H1023   0.992       .  S
C1014      C1015   1.405       .  A
C1014      O1019   1.371       .  S
C1015      C1016   1.404       .  A
C1015      H1020   1.084       .  S
C1016      C1017   1.413       .  A
C1017      C1018   1.403       .  A
C1017      O1021   1.371       .  S
C1018      H1022   1.083       .  S
O1019      H1024   0.992       .  S
O1021      H1025   0.991       .  S
C1027      C1028   1.398       .  A
C1027      C1032   1.399       .  A
C1027      H1037   1.084   1_545  S
C1028      C1033   1.482       .  S
C1028      C1029   1.410       .  A
C1029      C1030   1.404       .  A
C1029      O1034   1.372       .  S
C1030      C1031   1.405       .  A
C1030      H1035   1.083       .  S
C1031      C1032   1.417       .  A
C1032      O1036   1.371   1_545  S
C1033      C1038   1.407       .  A
C1033      C1042   1.403       .  A
O1034      H1050   0.992       .  S
O1036      H1047   0.992       .  S
C1038      C1039   1.399       .  A
C1038      O1043   1.371       .  S
C1039      C1040   1.404       .  A
C1039      H1044   1.084       .  S
C1040      C1041   1.409       .  A
C1041      C1042   1.402       .  A
C1041      O1045   1.371       .  S
C1042      H1046   1.084       .  S
O1043      H1048   0.991       .  S
O1045      H1049   0.992       .  S
C1051      C1052   1.401       .  A
C1051      C1056   1.405       .  A
C1051      H1061   1.083       .  S
C1052      C1057   1.490       .  S
C1052      C1053   1.413       .  A
C1053      C1054   1.402       .  A
C1053      O1058   1.371       .  S
C1054      C1055   1.401       .  A
C1054      H1059   1.084       .  S
C1055      C1056   1.413       .  A
C1056      O1060   1.373       .  S
C1057      C1062   1.408       .  A
C1057      C1066   1.406       .  A
O1058      H1074   0.992       .  S
O1060      H1071   0.992       .  S
C1062      C1063   1.404       .  A
C1062      O1067   1.372       .  S
C1063      C1064   1.407       .  A
C1063      H1068   1.084       .  S
C1064      C1065   1.407       .  A
C1065      C1066   1.402       .  A
C1065      O1069   1.372       .  S
C1066      H1070   1.084       .  S
O1067      H1072   0.992       .  S
O1069      H1073   0.992       .  S
C1075      C1076   1.404       .  A
C1075      C1080   1.405       .  A
C1075      H1085   1.083       .  S
C1076      C1081   1.492       .  S
C1076      C1077   1.412       .  A
C1077      C1078   1.404       .  A
C1077      O1082   1.372       .  S
C1078      C1079   1.402       .  A
C1078      H1083   1.084       .  S
C1079      C1080   1.413       .  A
C1080      O1084   1.372   1_545  S
C1081      C1086   1.409       .  A
C1081      C1090   1.406       .  A
O1082      H1098   0.992       .  S
O1084      H1095   0.992       .  S
C1086      C1087   1.404       .  A
C1086      O1091   1.371       .  S
C1087      C1088   1.406       .  A
C1087      H1092   1.084       .  S
C1088      C1089   1.407       .  A
C1089      C1090   1.403       .  A
C1089      O1093   1.372       .  S
C1090      H1094   1.083       .  S
O1091      H1096   0.992       .  S
O1093      H1097   0.992       .  S
C1099      C1100   1.404       .  A
C1099      C1104   1.406       .  A
C1099      H1109   1.083       .  S
C1100      C1105   1.496       .  S
C1100      C1101   1.413       .  A
C1101      C1102   1.405       .  A
C1101      O1106   1.371       .  S
C1102      C1103   1.401       .  A
C1102      H1107   1.084       .  S
C1103      C1104   1.413       .  A
C1104      O1108   1.372       .  S
C1105      C1110   1.412       .  A
C1105      C1114   1.404       .  A
O1106      H1122   0.992       .  S
O1108      H1119   0.992       .  S
C1110      C1111   1.405       .  A
C1110      O1115   1.371       .  S
C1111      C1112   1.405       .  A
C1111      H1116   1.084       .  S
C1112      C1113   1.413       .  A
C1113      C1114   1.406       .  A
C1113      O1117   1.372       .  S
C1114      H1118   1.083       .  S
O1115      H1120   0.991       .  S
O1117      H1121   0.992   1_556  S
C1123      C1124   1.396       .  A
C1123      C1128   1.399       .  A
C1123      H1133   1.084       .  S
C1124      C1129   1.484       .  S
C1124      C1125   1.412       .  A
C1125      C1126   1.404       .  A
C1125      O1130   1.369   1_556  S
C1126      C1127   1.403       .  A
C1126      H1131   1.083       .  S
C1127      C1128   1.418       .  A
C1128      O1132   1.372       .  S
C1129      C1134   1.408       .  A
C1129      C1138   1.402       .  A
O1130      H1146   0.992       .  S
O1132      H1143   0.992       .  S
C1134      C1135   1.404       .  A
C1134      O1139   1.371       .  S
C1135      C1136   1.405       .  A
C1135      H1140   1.084       .  S
C1136      C1137   1.409       .  A
C1137      C1138   1.400       .  A
C1137      O1141   1.371   1_556  S
C1138      H1142   1.084       .  S
O1139      H1144   0.992       .  S
O1141      H1145   0.991   1_554  S
C1147      C1148   1.400       .  A
C1147      C1152   1.399       .  A
C1147      H1157   1.084       .  S
C1148      C1153   1.482       .  S
C1148      C1149   1.411       .  A
C1149      C1150   1.404       .  A
C1149      O1154   1.373       .  S
C1150      C1151   1.402       .  A
C1150      H1155   1.084       .  S
C1151      C1152   1.412       .  A
C1152      O1156   1.371       .  S
C1153      C1158   1.408       .  A
C1153      C1162   1.403       .  A
O1154      H1170   0.992       .  S
O1156      H1167   0.992       .  S
C1158      C1159   1.402       .  A
C1158      O1163   1.373       .  S
C1159      C1160   1.402       .  A
C1159      H1164   1.084       .  S
C1160      C1161   1.408       .  A
C1161      C1162   1.401       .  A
C1161      O1165   1.372       .  S
C1162      H1166   1.084       .  S
O1163      H1168   0.992       .  S
O1165      H1169   0.992       .  S
C1171      C1172   1.407       .  A
C1171      C1176   1.404       .  A
C1171      H1181   1.083       .  S
C1172      C1177   1.495       .  S
C1172      C1173   1.409       .  A
C1173      C1174   1.405       .  A
C1173      O1178   1.372       .  S
C1174      C1175   1.410       .  A
C1174      H1179   1.084       .  S
C1175      C1176   1.408       .  A
C1176      O1180   1.372       .  S
C1177      C1182   1.413       .  A
C1177      C1186   1.404       .  A
O1178      H1194   0.992       .  S
O1180      H1191   0.992       .  S
C1182      C1183   1.405       .  A
C1182      O1187   1.373       .  S
C1183      C1184   1.402       .  A
C1183      H1188   1.084       .  S
C1184      C1185   1.410       .  A
C1185      C1186   1.406       .  A
C1185      O1189   1.372       .  S
C1186      H1190   1.083       .  S
O1187      H1192   0.992       .  S
O1189      H1193   0.992       .  S
C1195      C1196   1.406       .  A
C1195      C1200   1.404       .  A
C1195      H1205   1.084       .  S
C1196      C1201   1.482       .  S
C1196      C1197   1.403       .  A
C1197      C1198   1.398       .  A
C1197      O1202   1.372       .  S
C1198      C1199   1.411       .  A
C1198      H1203   1.083       .  S
C1199      C1200   1.410       .  A
C1200      O1204   1.371       .  S
C1201      C1206   1.407       .  A
C1201      C1210   1.404       .  A
O1202      H1218   0.992       .  S
O1204      H1215   0.992       .  S
C1206      C1207   1.399       .  A
C1206      O1211   1.371       .  S
C1207      C1208   1.405       .  A
C1207      H1212   1.084       .  S
C1208      C1209   1.408       .  A
C1209      C1210   1.401       .  A
C1209      O1213   1.372       .  S
C1210      H1214   1.084       .  S
O1211      H1216   0.992       .  S
O1213      H1217   0.991       .  S
C1219      C1220   1.408       .  A
C1219      C1224   1.406       .  A
C1219      H1229   1.081   1_556  S
C1220      C1225   1.487       .  S
C1220      C1221   1.403       .  A
C1221      C1222   1.401       .  A
C1221      O1226   1.372       .  S
C1222      C1223   1.410       .  A
C1222      H1227   1.084       .  S
C1223      C1224   1.407       .  A
C1224      O1228   1.371   1_556  S
C1225      C1230   1.407       .  A
C1225      C1234   1.404       .  A
O1226      H1242   0.992       .  S
O1228      H1239   0.992       .  S
C1230      C1231   1.405       .  A
C1230      O1235   1.372       .  S
C1231      C1232   1.408       .  A
C1231      H1236   1.084       .  S
C1232      C1233   1.409       .  A
C1233      C1234   1.401       .  A
C1233      O1237   1.371       .  S
C1234      H1238   1.084       .  S
O1235      H1240   0.992       .  S
O1237      H1241   0.991       .  S
C1243      C1244   1.405       .  A
C1243      C1248   1.401       .  A
C1243      H1253   1.083       .  S
C1244      C1249   1.483       .  S
C1244      C1245   1.409       .  A
C1245      C1246   1.397       .  A
C1245      O1250   1.372       .  S
C1246      C1247   1.402       .  A
C1246      H1251   1.084       .  S
C1247      C1248   1.407       .  A
C1248      O1252   1.372       .  S
C1249      C1254   1.411       .  A
C1249      C1258   1.401       .  A
O1250      H1266   0.992       .  S
O1252      H1263   0.992       .  S
C1254      C1255   1.401       .  A
C1254      O1259   1.372       .  S
C1255      C1256   1.403       .  A
C1255      H1260   1.084       .  S
C1256      C1257   1.412       .  A
C1257      C1258   1.397       .  A
C1257      O1261   1.372       .  S
C1258      H1262   1.084       .  S
O1259      H1264   0.992       .  S
O1261      H1265   0.992       .  S
C1267      C1268   1.404       .  A
C1267      C1272   1.399       .  A
C1267      H1277   1.083       .  S
C1268      C1273   1.482       .  S
C1268      C1269   1.409       .  A
C1269      C1270   1.397       .  A
C1269      O1274   1.372       .  S
C1270      C1271   1.404       .  A
C1270      H1275   1.084       .  S
C1271      C1272   1.407       .  A
C1272      O1276   1.371       .  S
C1273      C1278   1.413       .  A
C1273      C1282   1.400       .  A
O1274      H1290   0.992       .  S
O1276      H1287   0.991       .  S
C1278      C1279   1.402       .  A
C1278      O1283   1.371   1_556  S
C1279      C1280   1.400       .  A
C1279      H1284   1.084       .  S
C1280      C1281   1.410       .  A
C1281      C1282   1.396       .  A
C1281      O1285   1.373       .  S
C1282      H1286   1.084       .  S
O1283      H1288   0.992   1_554  S
O1285      H1289   0.992       .  S
C1291      C1292   1.408       .  A
C1291      C1296   1.405       .  A
C1291      H1301   1.084       .  S
C1292      C1297   1.481       .  S
C1292      C1293   1.401       .  A
C1293      C1294   1.392       .  A
C1293      O1298   1.372   1_545  S
C1294      C1295   1.413       .  A
C1294      H1299   1.083   1_545  S
C1295      C1296   1.411       .  A
C1296      O1300   1.371       .  S
C1297      C1302   1.406       .  A
C1297      C1306   1.405       .  A
O1298      H1314   0.992       .  S
O1300      H1311   0.992       .  S
C1302      C1303   1.399       .  A
C1302      O1307   1.371       .  S
C1303      C1304   1.406       .  A
C1303      H1308   1.084       .  S
C1304      C1305   1.406       .  A
C1305      C1306   1.398       .  A
C1305      O1309   1.371       .  S
C1306      H1310   1.084       .  S
O1307      H1312   0.992       .  S
O1309      H1313   0.991       .  S
C1315      C1316   1.403       .  A
C1315      C1320   1.400       .  A
C1315      H1325   1.084       .  S
C1316      C1321   1.478       .  S
C1316      C1317   1.405       .  A
C1317      C1318   1.401       .  A
C1317      O1322   1.372       .  S
C1318      C1319   1.405       .  A
C1318      H1323   1.084       .  S
C1319      C1320   1.408       .  A
C1320      O1324   1.371       .  S
C1321      C1326   1.408       .  A
C1321      C1330   1.399       .  A
O1322      H1338   0.992       .  S
O1324      H1335   0.992       .  S
C1326      C1327   1.400       .  A
C1326      O1331   1.372       .  S
C1327      C1328   1.404       .  A
C1327      H1332   1.083       .  S
C1328      C1329   1.415       .  A
C1329      C1330   1.401       .  A
C1329      O1333   1.372   1_545  S
C1330      H1334   1.084       .  S
O1331      H1336   0.992       .  S
O1333      H1337   0.992       .  S
C1339      C1340   1.401       .  A
C1339      C1344   1.404       .  A
C1339      H1349   1.083       .  S
C1340      C1345   1.491       .  S
C1340      C1341   1.412       .  A
C1341      C1342   1.405       .  A
C1341      O1346   1.371       .  S
C1342      C1343   1.401       .  A
C1342      H1347   1.084       .  S
C1343      C1344   1.415       .  A
C1344      O1348   1.372       .  S
C1345      C1350   1.410       .  A
C1345      C1354   1.404       .  A
O1346      H1362   0.992       .  S
O1348      H1359   0.992       .  S
C1350      C1351   1.402       .  A
C1350      O1355   1.371       .  S
C1351      C1352   1.404       .  A
C1351      H1356   1.084       .  S
C1352      C1353   1.414       .  A
C1353      C1354   1.406       .  A
C1353      O1357   1.371       .  S
C1354      H1358   1.083       .  S
O1355      H1360   0.991       .  S
O1357      H1361   0.992       .  S
C1363      C1364   1.401       .  A
C1363      C1368   1.397       .  A
C1363      H1373   1.083       .  S
C1364      C1369   1.492       .  S
C1364      C1365   1.417       .  A
C1365      C1366   1.409       .  A
C1365      O1370   1.374   1_455  S
C1366      C1367   1.400       .  A
C1366      H1371   1.083       .  S
C1367      C1368   1.412       .  A
C1368      O1372   1.372       .  S
C1369      C1374   1.412       .  A
C1369      C1378   1.405       .  A
O1370      H1386   0.992       .  S
O1372      H1383   0.992       .  S
C1374      C1375   1.402   1_455  A
C1374      O1379   1.372   1_455  S
C1375      C1376   1.405   1_655  A
C1375      H1380   1.084       .  S
C1376      C1377   1.408       .  A
C1377      C1378   1.401       .  A
C1377      O1381   1.371       .  S
C1378      H1382   1.083       .  S
O1379      H1384   0.992       .  S
O1381      H1385   0.991       .  S
C1387      C1388   1.401       .  A
C1387      C1392   1.403       .  A
C1387      H1397   1.083       .  S
C1388      C1393   1.484       .  S
C1388      C1389   1.410       .  A
C1389      C1390   1.403       .  A
C1389      O1394   1.371       .  S
C1390      C1391   1.403       .  A
C1390      H1395   1.084       .  S
C1391      C1392   1.413       .  A
C1392      O1396   1.373       .  S
C1393      C1398   1.402       .  A
C1393      C1402   1.407       .  A
O1394      H1410   0.992       .  S
O1396      H1407   0.992       .  S
C1398      C1399   1.398       .  A
C1398      O1403   1.371       .  S
C1399      C1400   1.410       .  A
C1399      H1404   1.084       .  S
C1400      C1401   1.411       .  A
C1401      C1402   1.407       .  A
C1401      O1405   1.371       .  S
C1402      H1406   1.084       .  S
O1403      H1408   0.992       .  S
O1405      H1409   0.992       .  S
C1411      C1412   1.400       .  A
C1411      C1416   1.402       .  A
C1411      H1421   1.084       .  S
C1412      C1417   1.484       .  S
C1412      C1413   1.410       .  A
C1413      C1414   1.402       .  A
C1413      O1418   1.372   1_556  S
C1414      C1415   1.404       .  A
C1414      H1419   1.083       .  S
C1415      C1416   1.416       .  A
C1416      O1420   1.372       .  S
C1417      C1422   1.409       .  A
C1417      C1426   1.403       .  A
O1418      H1434   0.992       .  S
O1420      H1431   0.992       .  S
C1422      C1423   1.401       .  A
C1422      O1427   1.371       .  S
C1423      C1424   1.403       .  A
C1423      H1428   1.084       .  S
C1424      C1425   1.411       .  A
C1425      C1426   1.404       .  A
C1425      O1429   1.371       .  S
C1426      H1430   1.084       .  S
O1427      H1432   0.992       .  S
O1429      H1433   0.991       .  S
C1435      C1436   1.408       .  A
C1435      C1440   1.403       .  A
C1435      H1445   1.083       .  S
C1436      C1441   1.496       .  S
C1436      C1437   1.412       .  A
C1437      C1438   1.402       .  A
C1437      O1442   1.372       .  S
C1438      C1439   1.406       .  A
C1438      H1443   1.084       .  S
C1439      C1440   1.407       .  A
C1440      O1444   1.371       .  S
C1441      C1446   1.415       .  A
C1441      C1450   1.404       .  A
O1442      H1458   0.992       .  S
O1444      H1455   0.991       .  S
C1446      C1447   1.406       .  A
C1446      O1451   1.372   1_455  S
C1447      C1448   1.401       .  A
C1447      H1452   1.084       .  S
C1448      C1449   1.410       .  A
C1449      C1450   1.402       .  A
C1449      O1453   1.372       .  S
C1450      H1454   1.083       .  S
O1451      H1456   0.992   1_655  S
O1453      H1457   0.992       .  S
C1459      C1460   1.409       .  A
C1459      C1464   1.406       .  A
C1459      H1469   1.083       .  S
C1460      C1465   1.492       .  S
C1460      C1461   1.406       .  A
C1461      C1462   1.402       .  A
C1461      O1466   1.372       .  S
C1462      C1463   1.410       .  A
C1462      H1467   1.084       .  S
C1463      C1464   1.409       .  A
C1464      O1468   1.371       .  S
C1465      C1470   1.409       .  A
C1465      C1474   1.406       .  A
O1466      H1482   0.992       .  S
O1468      H1479   0.992       .  S
C1470      C1471   1.403       .  A
C1470      O1475   1.372       .  S
C1471      C1472   1.404       .  A
C1471      H1476   1.084       .  S
C1472      C1473   1.409       .  A
C1473      C1474   1.404       .  A
C1473      O1477   1.371       .  S
C1474      H1478   1.083       .  S
O1475      H1480   0.992       .  S
O1477      H1481   0.992       .  S
C1483      C1484   1.402       .  A
C1483      C1488   1.408       .  A
C1483      H1493   1.083       .  S
C1484      C1489   1.492       .  S
C1484      C1485   1.409       .  A
C1485      C1486   1.406       .  A
C1485      O1490   1.372       .  S
C1486      C1487   1.406       .  A
C1486      H1491   1.084       .  S
C1487      C1488   1.416       .  A
C1488      O1492   1.371       .  S
C1489      C1494   1.411       .  A
C1489      C1498   1.398       .  A
O1490      H1506   0.992       .  S
O1492      H1503   0.991       .  S
C1494      C1495   1.411       .  A
C1494      O1499   1.369       .  S
C1495      C1496   1.405       .  A
C1495      H1500   1.084       .  S
C1496      C1497   1.418       .  A
C1497      C1498   1.403       .  A
C1497      O1501   1.372       .  S
C1498      H1502   1.083       .  S
O1499      H1504   0.992       .  S
O1501      H1505   0.992       .  S
C1507      C1508   1.406       .  A
C1507      C1512   1.407       .  A
C1507      H1517   1.083       .  S
C1508      C1513   1.500       .  S
C1508      C1509   1.409       .  A
C1509      C1510   1.410       .  A
C1509      O1514   1.372       .  S
C1510      C1511   1.413       .  A
C1510      H1515   1.084       .  S
C1511      C1512   1.411       .  A
C1512      O1516   1.371       .  S
C1513      C1518   1.415       .  A
C1513      C1522   1.405       .  A
O1514      H1530   0.992       .  S
O1516      H1527   0.991       .  S
C1518      C1519   1.407       .  A
C1518      O1523   1.373       .  S
C1519      C1520   1.404       .  A
C1519      H1524   1.084       .  S
C1520      C1521   1.413       .  A
C1521      C1522   1.409       .  A
C1521      O1525   1.372       .  S
C1522      H1526   1.083       .  S
O1523      H1528   0.991       .  S
O1525      H1529   0.992       .  S
C1531      C1532   1.408       .  A
C1531      C1536   1.407       .  A
C1531      H1541   1.084       .  S
C1532      C1537   1.489       .  S
C1532      C1533   1.403       .  A
C1533      C1534   1.398       .  A
C1533      O1538   1.372       .  S
C1534      C1535   1.413       .  A
C1534      H1539   1.083       .  S
C1535      C1536   1.413       .  A
C1536      O1540   1.371       .  S
C1537      C1542   1.408       .  A
C1537      C1546   1.407       .  A
O1538      H1554   0.992       .  S
O1540      H1551   0.992       .  S
C1542      C1543   1.400       .  A
C1542      O1547   1.372       .  S
C1543      C1544   1.406       .  A
C1543      H1548   1.084       .  S
C1544      C1545   1.407       .  A
C1545      C1546   1.404       .  A
C1545      O1549   1.372       .  S
C1546      H1550   1.083       .  S
O1547      H1552   0.992       .  S
O1549      H1553   0.992       .  S
C1555      C1556   1.410       .  A
C1555      C1560   1.404       .  A
C1555      H1565   1.084   1_455  S
C1556      C1561   1.499       .  S
C1556      C1557   1.410       .  A
C1557      C1558   1.405       .  A
C1557      O1562   1.371       .  S
C1558      C1559   1.407       .  A
C1558      H1563   1.084       .  S
C1559      C1560   1.407       .  A
C1560      O1564   1.371       .  S
C1561      C1566   1.413       .  A
C1561      C1570   1.406       .  A
O1562      H1578   0.992       .  S
O1564      H1575   0.991   1_455  S
C1566      C1567   1.403       .  A
C1566      O1571   1.371       .  S
C1567      C1568   1.404       .  A
C1567      H1572   1.084       .  S
C1568      C1569   1.411       .  A
C1569      C1570   1.407       .  A
C1569      O1573   1.372       .  S
C1570      H1574   1.083       .  S
O1571      H1576   0.991       .  S
O1573      H1577   0.992       .  S
C1579      C1580   1.403       .  A
C1579      C1584   1.402       .  A
C1579      H1589   1.084       .  S
C1580      C1585   1.491       .  S
C1580      C1581   1.410       .  A
C1581      C1582   1.408       .  A
C1581      O1586   1.371       .  S
C1582      C1583   1.405       .  A
C1582      H1587   1.083       .  S
C1583      C1584   1.410       .  A
C1584      O1588   1.373       .  S
C1585      C1590   1.405       .  A
C1585      C1594   1.407       .  A
O1586      H1602   0.992       .  S
O1588      H1599   0.992       .  S
C1590      C1591   1.403       .  A
C1590      O1595   1.371       .  S
C1591      C1592   1.412       .  A
C1591      H1596   1.083       .  S
C1592      C1593   1.411       .  A
C1593      C1594   1.406       .  A
C1593      O1597   1.371       .  S
C1594      H1598   1.084       .  S
O1595      H1600   0.992       .  S
O1597      H1601   0.992       .  S
C1603      C1604   1.408       .  A
C1603      C1608   1.405       .  A
C1603      H1613   1.084       .  S
C1604      C1609   1.496       .  S
C1604      C1605   1.409       .  A
C1605      C1606   1.408       .  A
C1605      O1610   1.372       .  S
C1606      C1607   1.408       .  A
C1606      H1611   1.084       .  S
C1607      C1608   1.406       .  A
C1608      O1612   1.371       .  S
C1609      C1614   1.410       .  A
C1609      C1618   1.407       .  A
O1610      H1626   0.992       .  S
O1612      H1623   0.992       .  S
C1614      C1615   1.406       .  A
C1614      O1619   1.372       .  S
C1615      C1616   1.410       .  A
C1615      H1620   1.084       .  S
C1616      C1617   1.408       .  A
C1617      C1618   1.405       .  A
C1617      O1621   1.371       .  S
C1618      H1622   1.084       .  S
O1619      H1624   0.992       .  S
O1621      H1625   0.991       .  S
C1627      C1628   1.406       .  A
C1627      C1632   1.405       .  A
C1627      H1637   1.084       .  S
C1628      C1633   1.484       .  S
C1628      C1629   1.403       .  A
C1629      C1630   1.402       .  A
C1629      O1634   1.372       .  S
C1630      C1631   1.410       .  A
C1630      H1635   1.084       .  S
C1631      C1632   1.410       .  A
C1632      O1636   1.371       .  S
C1633      C1638   1.407       .  A
C1633      C1642   1.403       .  A
O1634      H1650   0.992       .  S
O1636      H1647   0.992       .  S
C1638      C1639   1.401       .  A
C1638      O1643   1.371       .  S
C1639      C1640   1.404       .  A
C1639      H1644   1.084       .  S
C1640      C1641   1.410       .  A
C1641      C1642   1.404       .  A
C1641      O1645   1.372       .  S
C1642      H1646   1.083       .  S
O1643      H1648   0.992       .  S
O1645      H1649   0.992       .  S
C1651      C1652   1.406       .  A
C1651      C1656   1.408       .  A
C1651      H1661   1.083       .  S
C1652      C1657   1.502       .  S
C1652      C1653   1.417       .  A
C1653      C1654   1.405       .  A
C1653      O1658   1.373       .  S
C1654      C1655   1.402       .  A
C1654      H1659   1.084       .  S
C1655      C1656   1.413       .  A
C1656      O1660   1.372       .  S
C1657      C1662   1.411       .  A
C1657      C1666   1.408       .  A
O1658      H1674   0.992       .  S
O1660      H1671   0.992       .  S
C1662      C1663   1.408       .  A
C1662      O1667   1.371       .  S
C1663      C1664   1.409       .  A
C1663      H1668   1.084       .  S
C1664      C1665   1.409       .  A
C1665      C1666   1.405       .  A
C1665      O1669   1.371       .  S
C1666      H1670   1.083       .  S
O1667      H1672   0.992       .  S
O1669      H1673   0.991       .  S
C1675      C1676   1.406       .  A
C1675      C1680   1.407       .  A
C1675      H1685   1.084       .  S
C1676      C1681   1.484       .  S
C1676      C1677   1.402       .  A
C1677      C1678   1.400       .  A
C1677      O1682   1.372       .  S
C1678      C1679   1.411       .  A
C1678      H1683   1.084       .  S
C1679      C1680   1.411       .  A
C1680      O1684   1.371       .  S
C1681      C1686   1.407       .  A
C1681      C1690   1.404       .  A
O1682      H1698   0.992       .  S
O1684      H1695   0.992       .  S
C1686      C1687   1.402       .  A
C1686      O1691   1.372       .  S
C1687      C1688   1.404       .  A
C1687      H1692   1.084       .  S
C1688      C1689   1.408       .  A
C1689      C1690   1.403       .  A
C1689      O1693   1.371       .  S
C1690      H1694   1.083       .  S
O1691      H1696   0.992       .  S
O1693      H1697   0.992       .  S
C1699      C1700   1.401       .  A
C1699      C1704   1.403       .  A
C1699      H1709   1.084       .  S
C1700      C1705   1.482       .  S
C1700      C1701   1.407       .  A
C1701      C1702   1.402       .  A
C1701      O1706   1.371       .  S
C1702      C1703   1.404       .  A
C1702      H1707   1.084       .  S
C1703      C1704   1.411       .  A
C1704      O1708   1.372       .  S
C1705      C1710   1.403       .  A
C1705      C1714   1.406       .  A
O1706      H1722   0.992       .  S
O1708      H1719   0.992   1_556  S
C1710      C1711   1.401       .  A
C1710      O1715   1.371       .  S
C1711      C1712   1.410       .  A
C1711      H1716   1.084       .  S
C1712      C1713   1.410       .  A
C1713      C1714   1.405       .  A
C1713      O1717   1.371       .  S
C1714      H1718   1.084       .  S
O1715      H1720   0.992       .  S
O1717      H1721   0.992       .  S
C1723      C1724   1.404       .  A
C1723      C1728   1.401       .  A
C1723      H1733   1.084       .  S
C1724      C1729   1.485       .  S
C1724      C1725   1.407       .  A
C1725      C1726   1.404       .  A
C1725      O1730   1.371       .  S
C1726      C1727   1.406       .  A
C1726      H1731   1.084       .  S
C1727      C1728   1.408       .  A
C1728      O1732   1.371       .  S
C1729      C1734   1.403       .  A
C1729      C1738   1.407       .  A
O1730      H1746   0.992       .  S
O1732      H1743   0.992       .  S
C1734      C1735   1.400       .  A
C1734      O1739   1.372       .  S
C1735      C1736   1.410       .  A
C1735      H1740   1.084       .  S
C1736      C1737   1.408       .  A
C1737      C1738   1.404       .  A
C1737      O1741   1.371   1_455  S
C1738      H1742   1.080   1_455  S
O1739      H1744   0.992       .  S
O1741      H1745   0.992       .  S
