geometry optimzed in LAMMPS
_audit_creation_date              2020-12-01 
_audit_creation_method            'lammps2cif' 
_symmetry_space_group_name_H-M    'P1' 
_symmetry_Int_Tables_number       1 
_symmetry_cell_setting            triclinic 
loop_ 
_symmetry_equiv_pos_as_xyz 
  x,y,z 
_cell_length_a                    38.47588201 
_cell_length_b                    38.478999366642995 
_cell_length_c                    46.247587413557554 
_cell_angle_alpha                 90.00312122376292 
_cell_angle_beta                  89.99171309899388 
_cell_angle_gamma                 120.00728939208518 
loop_ 
_atom_site_label 
_atom_site_type_symbol 
_atom_site_fract_x 
_atom_site_fract_y 
_atom_site_fract_z 
_atom_site_charge 
O1          O  0.89072800  0.72306167  0.34203774    -0.72200
O2          O  0.78016686  0.66962160  0.31937822    -0.72300
O3          O  0.82049687  0.69490278  0.37059448    -0.72300
O4          O  0.85038386  0.69774947  0.29089802    -0.72400
O5          O  0.84700736  0.63846464  0.29614777    -0.72300
O6          O  0.81710640  0.63561109  0.37583752    -0.72300
O7          O  0.77677558  0.61030836  0.32468748    -0.72300
O8          O  0.88733484  0.66374906  0.34735840    -0.72300
Ni9        Ni  0.83556535  0.69845522  0.33053210     1.25400
Ni10       Ni  0.83193489  0.63491296  0.33620565     1.25400
C11         C  0.90685866  0.70208909  0.34885930     0.89900
C12         C  0.76065112  0.63128345  0.31785460     0.89900
C13         C  0.81472263  0.66512646  0.38639635     0.89900
C14         C  0.85276565  0.66823106  0.28034225     0.90100
O15         O  0.11030304  0.83266995  0.40774838    -0.72200
O16         O  0.22086524  0.88963660  0.43041931    -0.72300
O17         O  0.18055175  0.87469796  0.37920318    -0.72300
O18         O  0.15062969  0.84760025  0.45888868    -0.72400
O19         O  0.15390932  0.79164430  0.45360588    -0.72300
O20         O  0.18383480  0.81874443  0.37391592    -0.72300
O21         O  0.22415614  0.83366637  0.42506415    -0.72300
O22         O  0.11359251  0.77669912  0.40239052    -0.72300
Ni23       Ni  0.16546945  0.86315166  0.41926133     1.25400
Ni24       Ni  0.16899040  0.80318682  0.41354442     1.25400
C25         C  0.09412116  0.79556666  0.40090521     0.89900
C26         C  0.24033045  0.87076408  0.43192347     0.89900
C27         C  0.18628025  0.85068240  0.36338048     0.89900
C28         C  0.14819394  0.81566977  0.46942870     0.90100
O29         O  0.55728230  0.05639207  0.00873896    -0.72200
O30         O  0.44671669  0.00267869  0.48606425    -0.72300
O31         O  0.48701843  0.02809648  0.03728762    -0.72300
O32         O  0.51696009  0.03093906  0.45759736    -0.72400
O33         O  0.51375192  0.97173765  0.46288940    -0.72300
O34         O  0.48379357  0.96888669  0.04257070    -0.72300
O35         O  0.44349161  0.94344789  0.49141808    -0.72300
O36         O  0.55405517  0.99716236  0.01410645    -0.72300
Ni37       Ni  0.50211031  0.03164496  0.49722560     1.25400
Ni38       Ni  0.49865864  0.96819219  0.50294637     1.25400
C39         C  0.57349691  0.03550548  0.01558776     0.89900
C40         C  0.42728585  0.96433817  0.48455496     0.89900
C41         C  0.48131045  0.99835713  0.05310839     0.89900
C42         C  0.51943368  0.00146118  0.44706232     0.90100
O43         O  0.11366352  0.33623844  0.15228626    -0.72200
O44         O  0.22421586  0.38984889  0.17497171    -0.72300
O45         O  0.18390409  0.36444314  0.12381993    -0.72300
O46         O  0.15395992  0.36161318  0.20350178    -0.72400
O47         O  0.15069561  0.30238575  0.20879098    -0.72300
O48         O  0.18060478  0.30519812  0.12909802    -0.72300
O49         O  0.22093484  0.33059124  0.18031609    -0.72300
O50         O  0.11036208  0.27697402  0.15765288    -0.72300
Ni51       Ni  0.16905520  0.36515392  0.16344535     1.25400
Ni52       Ni  0.16553353  0.30166797  0.16916104     1.25400
C53         C  0.09418542  0.29789722  0.15080773     0.89900
C54         C  0.24039425  0.36893229  0.18182866     0.89900
C55         C  0.18632859  0.33494227  0.11327763     0.89900
C56         C  0.14823826  0.33187303  0.21932563     0.90100
O57         O  0.88742997  0.22329940  0.09731864    -0.72200
O58         O  0.77685872  0.16632592  0.07465503    -0.72300
O59         O  0.81718774  0.18131254  0.12580392    -0.72300
O60         O  0.84710599  0.20830164  0.04611235    -0.72400
O61         O  0.85036749  0.15232955  0.04086927    -0.72300
O62         O  0.82045056  0.12534118  0.12056585    -0.72300
O63         O  0.78013151  0.11033940  0.06934807    -0.72300
O64         O  0.89069508  0.16730888  0.09200746    -0.72300
Ni65       Ni  0.83202843  0.19681158  0.08617003     1.25400
Ni66       Ni  0.83552799  0.13682770  0.08050291     1.25400
C67         C  0.90689136  0.20442263  0.09882136     0.89900
C68         C  0.76067259  0.12921657  0.06782549     0.89900
C69         C  0.81473671  0.14938619  0.13636577     0.89900
C70         C  0.85281417  0.18425608  0.03031112     0.90100
O71         O  0.55403873  0.55672257  0.26407135    -0.72200
O72         O  0.44347167  0.49971408  0.24139310    -0.72300
O73         O  0.48379853  0.51463843  0.29254386    -0.72300
O74         O  0.51371619  0.54178734  0.21286029    -0.72400
O75         O  0.51703112  0.48585341  0.20755531    -0.72300
O76         O  0.48711794  0.45870695  0.28724431    -0.72300
O77         O  0.44680342  0.44376843  0.23602170    -0.72300
O78         O  0.55736211  0.50077306  0.25869314    -0.72300
Ni79       Ni  0.49863765  0.53021590  0.25291787     1.25400
Ni80       Ni  0.50219760  0.47027526  0.24718165     1.25400
C81         C  0.57352711  0.53787084  0.26554754     0.89900
C82         C  0.42732001  0.46262218  0.23451950     0.89900
C83         C  0.48137261  0.48270727  0.30307465     0.89900
C84         C  0.51944792  0.51778227  0.19702740     0.90100
O85         O  0.16746842  0.27699135  0.40767033    -0.72200
O86         O  0.11055666  0.33064050  0.43032759    -0.72300
O87         O  0.12549753  0.30523865  0.37910843    -0.72300
O88         O  0.15256069  0.30242017  0.45880312    -0.72400
O89         O  0.20855660  0.36163586  0.45351002    -0.72300
O90         O  0.18147351  0.36447397  0.37382961    -0.72300
O91         O  0.16655971  0.38989196  0.42498616    -0.72300
O92         O  0.22346743  0.33624038  0.40229732    -0.72300
Ni93       Ni  0.13701672  0.30170575  0.41917411     1.25400
Ni94       Ni  0.19701453  0.36518001  0.41345632     1.25400
C95         C  0.20457603  0.29789713  0.40082280     0.89900
C96         C  0.12945270  0.36898070  0.43184228     0.89900
C97         C  0.14954181  0.33497623  0.36328576     0.89900
C98         C  0.18452337  0.33189632  0.46933315     0.90100
O99         O  0.27717402  0.16703228  0.34197816    -0.72200
O100        O  0.33081883  0.11010508  0.31935105    -0.72300
O101        O  0.30543834  0.12508123  0.37055271    -0.72300
O102        O  0.30258606  0.15207318  0.29084882    -0.68800
O103        O  0.36181903  0.20805815  0.29611027    -0.72300
O104        O  0.36467142  0.18106844  0.37580446    -0.72300
O105        O  0.39007608  0.16610734  0.32467635    -0.72300
O106        O  0.33643270  0.22303323  0.34730245    -0.72300
Ni107      Ni  0.30188386  0.13656939  0.33048668     1.25400
Ni108      Ni  0.36536698  0.19656835  0.33617110     1.25400
C109        C  0.29808856  0.20414638  0.34879697     0.89900
C110        C  0.36916304  0.12899746  0.31784681     0.89900
C111        C  0.33518921  0.14913138  0.38635810     0.89900
C112        C  0.33207907  0.18400820  0.28029889     0.90100
O113        O  0.94402471  0.50055150  0.00871730    -0.72200
O114        O  0.99757403  0.44354764  0.48600743    -0.72300
O115        O  0.97221228  0.45848948  0.03724450    -0.72300
O116        O  0.96941662  0.48562214  0.45755861    -0.72400
O117        O  0.02868070  0.54155985  0.46284549    -0.72300
O118        O  0.03147571  0.51442980  0.04252351    -0.72300
O119        O  0.05686065  0.49950246  0.49136490    -0.72300
O120        O  0.00331293  0.55650483  0.01407273    -0.72300
Ni121      Ni  0.96868581  0.47005171  0.99718516     1.25400
Ni122      Ni  0.03220000  0.52999860  0.00290109     1.25400
C123        C  0.96496777  0.53765229  0.01556930     0.89900
C124        C  0.03591885  0.46240807  0.48449718     0.89900
C125        C  0.00197186  0.48249585  0.05306290     0.89900
C126        C  0.99893386  0.51754959  0.44702094     0.90100
O127        O  0.66385961  0.77661136  0.15252204    -0.72200
O128        O  0.61021188  0.83352406  0.17518680    -0.72300
O129        O  0.63563669  0.81862256  0.12404596    -0.72300
O130        O  0.63844763  0.79154660  0.20373484    -0.72400
O131        O  0.69768543  0.84751820  0.20901575    -0.72300
O132        O  0.69486429  0.87460572  0.12932756    -0.72300
O133        O  0.66946902  0.88951551  0.18054766    -0.72300
O134        O  0.72311712  0.83260485  0.15786723    -0.72300
Ni135      Ni  0.63492344  0.80307289  0.16367225     1.25400
Ni136      Ni  0.69840528  0.86306151  0.16938535     1.25400
C137        C  0.70220493  0.79549619  0.15102958     0.89900
C138        C  0.63112436  0.87062209  0.18204838     0.89900
C139        C  0.66511063  0.85058507  0.11351178     0.89900
C140        C  0.66817481  0.81559262  0.21956045     0.90100
O141        O  0.77707925  0.66362207  0.09736577    -0.72200
O142        O  0.83420613  0.61019520  0.07466978    -0.72300
O143        O  0.81914368  0.63545910  0.12583021    -0.72300
O144        O  0.79216044  0.63838385  0.04613702    -0.72400
O145        O  0.84808988  0.69767399  0.04091827    -0.72300
O146        O  0.87506856  0.69475241  0.12060777    -0.72300
O147        O  0.89014998  0.66951013  0.06938366    -0.72300
O148        O  0.83302231  0.72293659  0.09207417    -0.72300
Ni149      Ni  0.80364676  0.63479377  0.08619638     1.25400
Ni150      Ni  0.86358205  0.69833849  0.08055099     1.25400
C151        C  0.79590797  0.70196142  0.09889222     0.89900
C152        C  0.87132057  0.63117117  0.06785125     0.89900
C153        C  0.85104666  0.66496672  0.13639843     0.89900
C154        C  0.81618823  0.66816942  0.03034705     0.90100
O155        O  0.44373723  0.99701459  0.26411263    -0.72200
O156        O  0.50054318  0.94325289  0.24146529    -0.72300
O157        O  0.48571454  0.96877314  0.29259841    -0.72300
O158        O  0.45858706  0.97152347  0.21290766    -0.72400
O159        O  0.51460169  0.03071507  0.20758338    -0.72300
O160        O  0.54172372  0.02796800  0.28726785    -0.72300
O161        O  0.55657025  0.00247198  0.23606808    -0.72300
O162        O  0.49976315  0.05623316  0.25870973    -0.72300
Ni163      Ni  0.47014145  0.96802343  0.25297161     1.25400
Ni164      Ni  0.53016705  0.03146343  0.24720823     1.25400
C165        C  0.46265954  0.03535837  0.26557758     0.89900
C166        C  0.53764511  0.96412913  0.23459276     0.89900
C167        C  0.51768560  0.99825748  0.30311208     0.89900
C168        C  0.48263514  0.00123349  0.19706481     0.90100
O169        O  0.30285608  0.15013754  0.04086874    -0.72200
O170        O  0.30576972  0.18003828  0.12055631    -0.72300
O171        O  0.33108032  0.22036986  0.06934240    -0.72300
O172        O  0.27753955  0.10980858  0.09201257    -0.72400
O173        O  0.33682777  0.11312978  0.09730158    -0.72300
O174        O  0.39036694  0.22369210  0.07464375    -0.72300
O175        O  0.36502913  0.18334537  0.12579048    -0.72300
O176        O  0.36212370  0.15345849  0.04608808    -0.72300
Ni177      Ni  0.30219307  0.16497133  0.08049939     1.25400
Ni178      Ni  0.36570835  0.16852680  0.08615175     1.25400
C179        C  0.33234424  0.14771018  0.03029952     0.89900
C180        C  0.33552946  0.18576057  0.13635459     0.89900
C181        C  0.36942390  0.23985649  0.06782443     0.89900
C182        C  0.29848564  0.09364367  0.09882224     0.90100
O183        O  0.45858417  0.48669877  0.46288105    -0.72200
O184        O  0.48568217  0.51663753  0.04256997    -0.72300
O185        O  0.50043878  0.55695285  0.49143293    -0.72300
O186        O  0.44379599  0.44638622  0.01409683    -0.72400
O187        O  0.49988266  0.44331094  0.00870530    -0.72300
O188        O  0.55652760  0.55388302  0.48603294    -0.72300
O189        O  0.54175626  0.51357839  0.03724161    -0.72300
O190        O  0.51465543  0.48363227  0.45756444    -0.72300
Ni191      Ni  0.47011900  0.50177721  0.50294524     1.25400
Ni192      Ni  0.53020976  0.49849035  0.49718690     1.25400
C193        C  0.48266797  0.48108799  0.44704078     0.89900
C194        C  0.51768479  0.51920142  0.05308332     0.89900
C195        C  0.53754425  0.57324133  0.48455924     0.89900
C196        C  0.46277383  0.42702377  0.01557383     0.90100
O197        O  0.22379872  0.88695082  0.15240137    -0.72200
O198        O  0.16686826  0.77639170  0.17507535    -0.72300
O199        O  0.18178603  0.81671847  0.12392541    -0.72300
O200        O  0.20886037  0.84663321  0.20361304    -0.72400
O201        O  0.15288352  0.84988360  0.20889632    -0.72300
O202        O  0.12580703  0.81996374  0.12921035    -0.72300
O203        O  0.11087446  0.77964712  0.18043294    -0.72300
O204        O  0.16780514  0.89020854  0.15775431    -0.72300
Ni205      Ni  0.19732944  0.83155666  0.16355420     1.25400
Ni206      Ni  0.13733983  0.83504161  0.16926993     1.25400
C207        C  0.20491594  0.90640655  0.15091459     0.89900
C208        C  0.12976580  0.76019991  0.18193780     0.89900
C209        C  0.14984196  0.81425913  0.11338763     0.89900
C210        C  0.18482551  0.85233934  0.21943436     0.90100
O211        O  0.96974263  0.48350830  0.20755182    -0.72200
O212        O  0.97252285  0.51344000  0.28722697    -0.72300
O213        O  0.99795739  0.55374937  0.23600431    -0.72300
O214        O  0.94429927  0.44319332  0.25869891    -0.72400
O215        O  0.00355558  0.44646928  0.26406786    -0.72300
O216        O  0.05721262  0.55702721  0.24138582    -0.72300
O217        O  0.03174903  0.51669891  0.29253669    -0.72300
O218        O  0.02897733  0.48678128  0.21284576    -0.72300
Ni219      Ni  0.96901364  0.49835687  0.24717213     1.25400
Ni220      Ni  0.03249317  0.50186209  0.25290846     1.25400
C221        C  0.99923662  0.48105814  0.19701913     0.89900
C222        C  0.00224752  0.51914594  0.30306239     0.89900
C223        C  0.03630312  0.57320856  0.23451300     0.89900
C224        C  0.96521090  0.42700870  0.26555817     0.90100
O225        O  0.79216373  0.15358147  0.29611380    -0.72200
O226        O  0.81917309  0.18344637  0.37581373    -0.72300
O227        O  0.83430414  0.22379167  0.32466602    -0.72300
O228        O  0.77700304  0.11324080  0.34733595    -0.72400
O229        O  0.83287866  0.10975062  0.34204853    -0.72300
O230        O  0.89018115  0.22030609  0.31936870    -0.72300
O231        O  0.87503496  0.17997050  0.37058326    -0.72300
O232        O  0.84802155  0.15009639  0.29089455    -0.72300
Ni233      Ni  0.80366238  0.16863906  0.33617776     1.25400
Ni234      Ni  0.86352603  0.16490510  0.33052816     1.25400
C235        C  0.81615471  0.14777056  0.28032220     0.89900
C236        C  0.85105197  0.18578650  0.38637708     0.89900
C237        C  0.87141213  0.23987295  0.31784857     0.89900
C238        C  0.79576947  0.09367331  0.34886546     0.90100
O239        O  0.66905530  0.77972904  0.43056803    -0.72200
O240        O  0.72269257  0.89028111  0.40787936    -0.72300
O241        O  0.69728115  0.84996106  0.45902098    -0.72300
O242        O  0.69445641  0.82003140  0.37934818    -0.72400
O243        O  0.63523104  0.81677859  0.37405237    -0.72300
O244        O  0.63803627  0.84667496  0.45375398    -0.72300
O245        O  0.66343454  0.88700958  0.40253840    -0.72300
O246        O  0.60979338  0.77644212  0.42520223    -0.72300
Ni247      Ni  0.69798798  0.83511802  0.41940032     1.25400
Ni248      Ni  0.63450333  0.83160955  0.41368691     1.25400
C249        C  0.63071101  0.76026678  0.43206765     0.89900
C250        C  0.70177959  0.90647271  0.40104489     0.89900
C251        C  0.66778534  0.85239229  0.46956879     0.89900
C252        C  0.66472309  0.81431763  0.36352134     0.90100
C253        C  0.77500167  0.05309803  0.35921991    -0.16300
C254        C  0.75803687  0.01958749  0.36902385     0.07700
C255        C  0.73844131  0.98058184  0.38092750     0.09600
C256        C  0.72174179  0.94706140  0.39071490    -0.17200
C257        C  0.94525535  0.38643778  0.27592223    -0.16300
C258        C  0.92860177  0.35293848  0.28574728     0.07700
C259        C  0.90908115  0.31395401  0.29768466     0.09600
C260        C  0.89216616  0.28044939  0.30749950    -0.17200
C261        C  0.10916183  0.71964481  0.19233876    -0.16300
C262        C  0.09234310  0.68617607  0.20222056     0.07700
C263        C  0.07289129  0.64723700  0.21423903     0.09600
C264        C  0.05626042  0.61376644  0.22411740    -0.17200
C265        C  0.61076905  0.71971130  0.44246205    -0.16300
C266        C  0.59417779  0.68623834  0.45233280     0.07700
C267        C  0.57479525  0.64728979  0.46433015     0.09600
C268        C  0.55804896  0.61380841  0.47418664    -0.17200
C269        C  0.27856944  0.05305890  0.10915264    -0.16300
C270        C  0.26193094  0.01953601  0.11893307     0.07700
C271        C  0.24242775  0.98052033  0.13081398     0.09600
C272        C  0.22555523  0.94699499  0.14059030    -0.17200
C273        C  0.44224620  0.38644654  0.02593055    -0.16300
C274        C  0.42543958  0.35294084  0.03574620     0.07700
C275        C  0.40597621  0.31394744  0.04767138     0.09600
C276        C  0.38934574  0.28043749  0.05747871    -0.17200
C277        C  0.66767444  0.80773684  0.25013580    -0.16300
C278        C  0.66691315  0.80443163  0.27620171     0.07700
C279        C  0.66593102  0.80407304  0.30691482     0.09600
C280        C  0.66518210  0.80681735  0.33296577    -0.17200
C281        C  0.66735983  0.85983536  0.50013510    -0.16300
C282        C  0.66677862  0.86248736  0.02620125     0.07700
C283        C  0.66605726  0.86198504  0.05691666     0.09600
C284        C  0.66549029  0.85855390  0.08296628    -0.17200
C285        C  0.72216123  0.77486059  0.14070040    -0.16300
C286        C  0.73881212  0.75798567  0.13091906     0.07700
C287        C  0.75832056  0.73847731  0.11902946     0.09600
C288        C  0.77520929  0.72184538  0.10923901    -0.17200
C289        C  0.61116889  0.89121908  0.19244463    -0.16300
C290        C  0.59452102  0.90803743  0.20232482     0.07700
C291        C  0.57504264  0.92749487  0.21434111     0.09600
C292        C  0.55821637  0.94413941  0.22421304    -0.17200
C293        C  0.00176959  0.52660377  0.33362425    -0.16300
C294        C  0.00104743  0.52928599  0.35968207     0.07700
C295        C  0.00012145  0.52883996  0.39039714     0.09600
C296        C  0.99940459  0.52546370  0.41645681    -0.17200
C297        C  0.00155835  0.47456673  0.08362056    -0.16300
C298        C  0.00097665  0.47121899  0.10967911     0.07700
C299        C  0.00024805  0.47083176  0.14039727     0.09600
C300        C  0.99966301  0.47356405  0.16645857    -0.17200
C301        C  0.89201759  0.61129185  0.05748863    -0.16300
C302        C  0.90890645  0.59467431  0.04767083     0.07700
C303        C  0.92840966  0.57518255  0.03574099     0.09600
C304        C  0.94504546  0.55830973  0.02592683    -0.17200
C305        C  0.33272999  0.14021545  0.99974142    -0.16300
C306        C  0.33334600  0.13749254  0.47368458     0.07700
C307        C  0.33414845  0.13789637  0.44297300     0.09600
C308        C  0.33477781  0.14124345  0.41691675    -0.17200
C309        C  0.33254077  0.19189745  0.24973714    -0.16300
C310        C  0.33330688  0.19530629  0.22368240     0.07700
C311        C  0.33431551  0.19581898  0.19297437     0.09600
C312        C  0.33507936  0.19318701  0.16691834    -0.17200
C313        C  0.44207886  0.05535495  0.27592364    -0.16300
C314        C  0.42524740  0.07202530  0.28574050     0.07700
C315        C  0.40576573  0.09152535  0.29767801     0.09600
C316        C  0.38911752  0.10837724  0.30749762    -0.17200
C317        C  0.05584357  0.44178133  0.47408204    -0.16300
C318        C  0.07248810  0.42496373  0.46418539     0.07700
C319        C  0.09198679  0.40553190  0.45214627     0.09600
C320        C  0.10884197  0.38892454  0.44225081    -0.17200
C321        C  0.22519680  0.27792821  0.39050508    -0.16300
C322        C  0.24203498  0.26123730  0.38073854     0.07700
C323        C  0.26150348  0.24168372  0.36887199     0.09600
C324        C  0.27813737  0.22478802  0.35910681    -0.17200
C325        C  0.47477372  0.47362931  0.41647490    -0.16300
C326        C  0.47146527  0.47094609  0.39041136     0.07700
C327        C  0.47111952  0.47139109  0.35969330     0.09600
C328        C  0.47387318  0.47477101  0.33363491    -0.17200
C329        C  0.52689202  0.52569977  0.16646471    -0.16300
C330        C  0.52954629  0.52905308  0.14040457     0.07700
C331        C  0.52905175  0.52944735  0.10969117     0.09600
C332        C  0.52563199  0.52671167  0.08363715    -0.17200
C333        C  0.85895371  0.19325164  0.41693348    -0.16300
C334        C  0.86237491  0.19593994  0.44298569     0.07700
C335        C  0.86289523  0.19549733  0.47369293     0.09600
C336        C  0.86025823  0.19213111  0.99974970    -0.17200
C337        C  0.80829239  0.14033519  0.24975648    -0.16300
C338        C  0.80495851  0.13767245  0.22369681     0.07700
C339        C  0.80455162  0.13813355  0.19298460     0.09600
C340        C  0.80725936  0.14150484  0.16692760    -0.17200
C341        C  0.14073621  0.33230792  0.24988322    -0.16300
C342        C  0.13799315  0.33297957  0.27593878     0.07700
C343        C  0.13835632  0.33384489  0.30665366     0.09600
C344        C  0.14166898  0.33452130  0.33271696    -0.17200
C345        C  0.19247162  0.33231579  0.49988437    -0.16300
C346        C  0.19590214  0.33297376  0.02593616     0.07700
C347        C  0.19641331  0.33382478  0.05664965     0.09600
C348        C  0.19376910  0.33449212  0.08271215    -0.17200
C349        C  0.05359270  0.27796112  0.14049281    -0.16300
C350        C  0.02005791  0.26134940  0.13073440     0.07700
C351        C  0.98102527  0.24190230  0.11888341     0.09600
C352        C  0.94748749  0.22506628  0.10912979    -0.17200
C353        C  0.28094451  0.38888301  0.19223920    -0.16300
C354        C  0.31440173  0.40555913  0.20214131     0.07700
C355        C  0.35332011  0.42509633  0.21419364     0.09600
C356        C  0.38677356  0.44198183  0.22410181    -0.17200
C357        C  0.52563218  0.99872381  0.33366855    -0.16300
C358        C  0.52904874  0.99942082  0.35972346     0.07700
C359        C  0.52954070  0.00031393  0.39043738     0.09600
C360        C  0.52688402  0.00100742  0.41649815    -0.17200
C361        C  0.47471993  0.00077823  0.16650267    -0.16300
C362        C  0.47139132  0.00014906  0.14044186     0.07700
C363        C  0.47103238  0.99936962  0.10972486     0.09600
C364        C  0.47379055  0.99876353  0.08366680    -0.17200
C365        C  0.72010054  0.10857579  0.05745991    -0.16300
C366        C  0.68659724  0.09169844  0.04764041     0.07700
C367        C  0.64760125  0.07217126  0.03571936     0.09600
C368        C  0.61408523  0.05549100  0.02592186    -0.17200
C369        C  0.19377175  0.85861219  0.33282284    -0.16300
C370        C  0.19649120  0.86201204  0.30676704     0.07700
C371        C  0.19608323  0.86248095  0.27605391     0.09600
C372        C  0.19272853  0.85980430  0.24999505    -0.17200
C373        C  0.14074510  0.80777512  0.49999408    -0.16300
C374        C  0.13807754  0.80444153  0.02605546     0.07700
C375        C  0.13854232  0.80405388  0.05677051     0.09600
C376        C  0.14192784  0.80677683  0.08282738    -0.17200
C377        C  0.28088501  0.89138658  0.44232281    -0.16300
C378        C  0.31434866  0.90823313  0.45221211     0.07700
C379        C  0.35327600  0.92771658  0.46424809     0.09600
C380        C  0.38673601  0.94436617  0.47414421    -0.17200
C381        C  0.80725476  0.66555375  0.41695752    -0.16300
C382        C  0.80455673  0.66622690  0.44301451     0.07700
C383        C  0.80497745  0.66709679  0.47372635     0.09600
C384        C  0.80832245  0.66776189  0.99978442    -0.17200
C385        C  0.86019530  0.66777536  0.24977873    -0.16300
C386        C  0.86283276  0.66704453  0.22372123     0.07700
C387        C  0.86232982  0.66609735  0.19301182     0.09600
C388        C  0.85893017  0.66538432  0.16695787    -0.17200
C389        C  0.72008808  0.61140745  0.30747859    -0.16300
C390        C  0.68659549  0.59481311  0.29764262     0.07700
C391        C  0.64761532  0.57536334  0.28570002     0.09600
C392        C  0.61410879  0.55851953  0.27588803    -0.17200
C393        C  0.94744959  0.72197460  0.35917658    -0.16300
C394        C  0.98098055  0.73858916  0.36894251     0.07700
C395        C  0.02000412  0.75806511  0.38080941     0.09600
C396        C  0.05353292  0.77492226  0.39057993    -0.17200
O397        O  0.89072801  0.72306171  0.84203779    -0.72200
O398        O  0.78016682  0.66962152  0.81937829    -0.72300
O399        O  0.82049688  0.69490275  0.87059456    -0.72300
O400        O  0.85038384  0.69774951  0.79089814    -0.72400
O401        O  0.84700730  0.63846464  0.79614781    -0.72300
O402        O  0.81710617  0.63561095  0.87583751    -0.72300
O403        O  0.77677554  0.61030829  0.82468736    -0.72300
O404        O  0.88733462  0.66374898  0.84735833    -0.72300
Ni405      Ni  0.83556536  0.69845523  0.83053218     1.25400
Ni406      Ni  0.83193476  0.63491292  0.83620561     1.25400
C407        C  0.90685851  0.70208899  0.84885930     0.89900
C408        C  0.76065128  0.63128332  0.81785465     0.89900
C409        C  0.81472247  0.66512639  0.88639639     0.89900
C410        C  0.85276572  0.66823114  0.78034224     0.90100
O411        O  0.11030297  0.83266988  0.90774837    -0.72200
O412        O  0.22086512  0.88963649  0.93041933    -0.72300
O413        O  0.18055162  0.87469780  0.87920307    -0.72300
O414        O  0.15062953  0.84760023  0.95888855    -0.72400
O415        O  0.15390950  0.79164444  0.95360589    -0.72300
O416        O  0.18383487  0.81874438  0.87391590    -0.72300
O417        O  0.22415620  0.83366637  0.92506408    -0.72300
O418        O  0.11359257  0.77669912  0.90239053    -0.72300
Ni419      Ni  0.16546937  0.86315163  0.91926126     1.25400
Ni420      Ni  0.16899045  0.80318685  0.91354445     1.25400
C421        C  0.09412120  0.79556657  0.90090514     0.89900
C422        C  0.24033048  0.87076406  0.93192344     0.89900
C423        C  0.18628018  0.85068213  0.86338042     0.89900
C424        C  0.14819393  0.81566990  0.96942871     0.90100
O425        O  0.55728237  0.05639212  0.50873908    -0.72200
O426        O  0.44671657  0.00267858  0.98606427    -0.72300
O427        O  0.48701857  0.02809659  0.53728756    -0.72300
O428        O  0.51695984  0.03093883  0.95759738    -0.72400
O429        O  0.51375196  0.97173756  0.96288928    -0.72300
O430        O  0.48379363  0.96888679  0.54257081    -0.72300
O431        O  0.44349156  0.94344777  0.99141795    -0.72300
O432        O  0.55405517  0.99716234  0.51410651    -0.72300
Ni433      Ni  0.50211016  0.03164485  0.99722563     1.25400
Ni434      Ni  0.49865857  0.96819210  0.00294627     1.25400
C435        C  0.57349687  0.03550532  0.51558787     0.89900
C436        C  0.42728572  0.96433812  0.98455488     0.89900
C437        C  0.48131051  0.99835724  0.55310842     0.89900
C438        C  0.51943357  0.00146098  0.94706245     0.90100
O439        O  0.11366344  0.33623834  0.65228632    -0.72200
O440        O  0.22421575  0.38984877  0.67497185    -0.72300
O441        O  0.18390421  0.36444317  0.62382006    -0.72300
O442        O  0.15395993  0.36161305  0.70350181    -0.72400
O443        O  0.15069534  0.30238548  0.70879097    -0.72300
O444        O  0.18060469  0.30519802  0.62909796    -0.72300
O445        O  0.22093477  0.33059112  0.68031603    -0.72300
O446        O  0.11036197  0.27697385  0.65765285    -0.72300
Ni447      Ni  0.16905514  0.36515390  0.66344542     1.25400
Ni448      Ni  0.16553338  0.30166783  0.66916099     1.25400
C449        C  0.09418527  0.29789707  0.65080776     0.89900
C450        C  0.24039409  0.36893212  0.68182862     0.89900
C451        C  0.18632858  0.33494231  0.61327769     0.89900
C452        C  0.14823825  0.33187292  0.71932549     0.90100
O453        O  0.88742990  0.22329933  0.59731849    -0.72200
O454        O  0.77685868  0.16632589  0.57465502    -0.72300
O455        O  0.81718768  0.18131248  0.62580388    -0.72300
O456        O  0.84710601  0.20830160  0.54611236    -0.72400
O457        O  0.85036738  0.15232943  0.54086926    -0.72300
O458        O  0.82045030  0.12534105  0.62056580    -0.72300
O459        O  0.78013156  0.11033943  0.56934803    -0.72300
O460        O  0.89069496  0.16730876  0.59200741    -0.72300
Ni461      Ni  0.83202838  0.19681149  0.58616995     1.25400
Ni462      Ni  0.83552793  0.13682761  0.58050287     1.25400
C463        C  0.90689143  0.20442256  0.59882137     0.89900
C464        C  0.76067254  0.12921642  0.56782542     0.89900
C465        C  0.81473666  0.14938613  0.63636565     0.89900
C466        C  0.85281416  0.18425589  0.53031101     0.90100
O467        O  0.55403877  0.55672267  0.76407153    -0.72200
O468        O  0.44347165  0.49971402  0.74139319    -0.72300
O469        O  0.48379853  0.51463841  0.79254390    -0.72300
O470        O  0.51371613  0.54178735  0.71286036    -0.72400
O471        O  0.51703128  0.48585356  0.70755549    -0.72300
O472        O  0.48711803  0.45870697  0.78724444    -0.72300
O473        O  0.44680347  0.44376845  0.73602179    -0.72300
O474        O  0.55736218  0.50077321  0.75869328    -0.72300
Ni475      Ni  0.49863769  0.53021588  0.75291795     1.25400
Ni476      Ni  0.50219767  0.47027533  0.74718181     1.25400
C477        C  0.57352695  0.53787082  0.76554761     0.89900
C478        C  0.42732021  0.46262219  0.73451967     0.89900
C479        C  0.48137262  0.48270711  0.80307464     0.89900
C480        C  0.51944796  0.51778224  0.69702753     0.90100
O481        O  0.16746836  0.27699134  0.90767027    -0.72200
O482        O  0.11055655  0.33064042  0.93032754    -0.72300
O483        O  0.12549742  0.30523850  0.87910836    -0.72300
O484        O  0.15256063  0.30242016  0.95880305    -0.72400
O485        O  0.20855646  0.36163587  0.95350994    -0.72300
O486        O  0.18147329  0.36447388  0.87382952    -0.72300
O487        O  0.16655961  0.38989181  0.92498612    -0.72300
O488        O  0.22346734  0.33624039  0.90229724    -0.72300
Ni489      Ni  0.13701670  0.30170574  0.91917404     1.25400
Ni490      Ni  0.19701441  0.36517996  0.91345623     1.25400
C491        C  0.20457607  0.29789714  0.90082271     0.89900
C492        C  0.12945259  0.36898061  0.93184222     0.89900
C493        C  0.14954159  0.33497592  0.86328582     0.89900
C494        C  0.18452318  0.33189623  0.96933312     0.90100
O495        O  0.27717391  0.16703224  0.84197826    -0.72200
O496        O  0.33081877  0.11010500  0.81935123    -0.72300
O497        O  0.30543828  0.12508120  0.87055280    -0.72300
O498        O  0.30258595  0.15207307  0.79084890    -0.68800
O499        O  0.36181883  0.20805815  0.79611028    -0.72300
O500        O  0.36467136  0.18106846  0.87580441    -0.72300
O501        O  0.39007600  0.16610730  0.82467625    -0.72300
O502        O  0.33643259  0.22303319  0.84730237    -0.72300
Ni503      Ni  0.30188382  0.13656941  0.83048682     1.25400
Ni504      Ni  0.36536690  0.19656833  0.83617105     1.25400
C505        C  0.29808841  0.20414622  0.84879701     0.89900
C506        C  0.36916282  0.12899741  0.81784676     0.89900
C507        C  0.33518913  0.14913138  0.88635825     0.89900
C508        C  0.33207892  0.18400810  0.78029878     0.90100
O509        O  0.94402471  0.50055149  0.50871730    -0.72200
O510        O  0.99757408  0.44354759  0.98600735    -0.72300
O511        O  0.97221221  0.45848953  0.53724452    -0.72300
O512        O  0.96941659  0.48562210  0.95755861    -0.72400
O513        O  0.02868064  0.54155988  0.96284552    -0.72300
O514        O  0.03147569  0.51442975  0.54252347    -0.72300
O515        O  0.05686067  0.49950249  0.99136496    -0.72300
O516        O  0.00331296  0.55650477  0.51407266    -0.72300
Ni517      Ni  0.96868582  0.47005178  0.49718522     1.25400
Ni518      Ni  0.03219998  0.52999853  0.50290104     1.25400
C519        C  0.96496779  0.53765227  0.51556931     0.89900
C520        C  0.03591887  0.46240803  0.98449727     0.89900
C521        C  0.00197186  0.48249586  0.55306298     0.89900
C522        C  0.99893386  0.51754961  0.94702092     0.90100
O523        O  0.66385952  0.77661122  0.65252218    -0.72200
O524        O  0.61021174  0.83352402  0.67518691    -0.72300
O525        O  0.63563657  0.81862240  0.62404604    -0.72300
O526        O  0.63844764  0.79154653  0.70373488    -0.72400
O527        O  0.69768534  0.84751822  0.70901565    -0.72300
O528        O  0.69486413  0.87460563  0.62932752    -0.72300
O529        O  0.66946890  0.88951544  0.68054752    -0.72300
O530        O  0.72311705  0.83260475  0.65786712    -0.72300
Ni531      Ni  0.63492337  0.80307285  0.66367233     1.25400
Ni532      Ni  0.69840521  0.86306142  0.66938522     1.25400
C533        C  0.70220479  0.79549610  0.65102967     0.89900
C534        C  0.63112435  0.87062205  0.68204838     0.89900
C535        C  0.66511042  0.85058494  0.61351179     0.89900
C536        C  0.66817477  0.81559264  0.71956033     0.90100
O537        O  0.77707940  0.66362208  0.59736573    -0.72200
O538        O  0.83420620  0.61019520  0.57466973    -0.72300
O539        O  0.81914379  0.63545904  0.62583016    -0.72300
O540        O  0.79216053  0.63838381  0.54613708    -0.72400
O541        O  0.84808997  0.69767395  0.54091843    -0.72300
O542        O  0.87506864  0.69475242  0.62060779    -0.72300
O543        O  0.89015008  0.66951014  0.56938370    -0.72300
O544        O  0.83302246  0.72293658  0.59207431    -0.72300
Ni545      Ni  0.80364686  0.63479375  0.58619640     1.25400
Ni546      Ni  0.86358217  0.69833844  0.58055109     1.25400
C547        C  0.79590816  0.70196145  0.59889220     0.89900
C548        C  0.87132075  0.63117129  0.56785119     0.89900
C549        C  0.85104682  0.66496683  0.63639861     0.89900
C550        C  0.81618840  0.66816941  0.53034716     0.90100
O551        O  0.44373709  0.99701458  0.76411270    -0.72200
O552        O  0.50054317  0.94325298  0.74146544    -0.72300
O553        O  0.48571446  0.96877323  0.79259842    -0.72300
O554        O  0.45858703  0.97152351  0.71290768    -0.72400
O555        O  0.51460164  0.03071515  0.70758340    -0.72300
O556        O  0.54172368  0.02796801  0.78726785    -0.72300
O557        O  0.55657022  0.00247201  0.73606804    -0.72300
O558        O  0.49976299  0.05623314  0.75870962    -0.72300
Ni559      Ni  0.47014135  0.96802343  0.75297166     1.25400
Ni560      Ni  0.53016695  0.03146346  0.74720820     1.25400
C561        C  0.46265930  0.03535825  0.76557761     0.89900
C562        C  0.53764512  0.96412919  0.73459276     0.89900
C563        C  0.51768551  0.99825753  0.80311195     0.89900
C564        C  0.48263510  0.00123347  0.69706482     0.90100
O565        O  0.30285613  0.15013768  0.54086870    -0.72200
O566        O  0.30576987  0.18003831  0.62055622    -0.72300
O567        O  0.33108040  0.22036989  0.56934234    -0.72300
O568        O  0.27753967  0.10980856  0.59201259    -0.72400
O569        O  0.33682780  0.11312956  0.59730164    -0.72300
O570        O  0.39036701  0.22369215  0.57464387    -0.72300
O571        O  0.36502919  0.18334523  0.62579056    -0.72300
O572        O  0.36212358  0.15345830  0.54608807    -0.72300
Ni573      Ni  0.30219314  0.16497136  0.58049937     1.25400
Ni574      Ni  0.36570835  0.16852671  0.58615180     1.25400
C575        C  0.33234403  0.14771013  0.53029957     0.89900
C576        C  0.33552948  0.18576053  0.63635467     0.89900
C577        C  0.36942386  0.23985656  0.56782439     0.89900
C578        C  0.29848573  0.09364357  0.59882229     0.90100
O579        O  0.45858415  0.48669866  0.96288110    -0.72200
O580        O  0.48568218  0.51663761  0.54257000    -0.72300
O581        O  0.50043880  0.55695278  0.99143301    -0.72300
O582        O  0.44379589  0.44638618  0.51409685    -0.72400
O583        O  0.49988259  0.44331093  0.50870536    -0.72300
O584        O  0.55652762  0.55388300  0.98603295    -0.72300
O585        O  0.54175620  0.51357835  0.53724164    -0.72300
O586        O  0.51465551  0.48363237  0.95756445    -0.72300
Ni587      Ni  0.47011899  0.50177715  0.00294525     1.25400
Ni588      Ni  0.53020973  0.49849035  0.99718690     1.25400
C589        C  0.48266798  0.48108813  0.94704084     0.89900
C590        C  0.51768473  0.51920139  0.55308327     0.89900
C591        C  0.53754429  0.57324126  0.98455928     0.89900
C592        C  0.46277362  0.42702369  0.51557389     0.90100
O593        O  0.22379858  0.88695082  0.65240133    -0.72200
O594        O  0.16686817  0.77639163  0.67507531    -0.72300
O595        O  0.18178597  0.81671850  0.62392541    -0.72300
O596        O  0.20886031  0.84663336  0.70361310    -0.72400
O597        O  0.15288337  0.84988356  0.70889647    -0.72300
O598        O  0.12580697  0.81996379  0.62921035    -0.72300
O599        O  0.11087445  0.77964716  0.68043308    -0.72300
O600        O  0.16780508  0.89020865  0.65775437    -0.72300
Ni601      Ni  0.19732937  0.83155667  0.66355422     1.25400
Ni602      Ni  0.13733975  0.83504164  0.66927000     1.25400
C603        C  0.20491578  0.90640655  0.65091459     0.89900
C604        C  0.12976577  0.76019994  0.68193781     0.89900
C605        C  0.14984200  0.81425923  0.61338760     0.89900
C606        C  0.18482529  0.85233936  0.71943441     0.90100
O607        O  0.96974266  0.48350831  0.70755177    -0.72200
O608        O  0.97252283  0.51344000  0.78722689    -0.72300
O609        O  0.99795742  0.55374948  0.73600431    -0.72300
O610        O  0.94429920  0.44319327  0.75869881    -0.72400
O611        O  0.00355556  0.44646931  0.76406794    -0.72300
O612        O  0.05721265  0.55702726  0.74138572    -0.72300
O613        O  0.03174908  0.51669901  0.79253666    -0.72300
O614        O  0.02897736  0.48678125  0.71284578    -0.72300
Ni615      Ni  0.96901360  0.49835687  0.74717205     1.25400
Ni616      Ni  0.03249324  0.50186213  0.75290847     1.25400
C617        C  0.99923649  0.48105806  0.69701905     0.89900
C618        C  0.00224742  0.51914601  0.80306239     0.89900
C619        C  0.03630312  0.57320860  0.73451292     0.89900
C620        C  0.96521082  0.42700878  0.76555816     0.90100
O621        O  0.79216392  0.15358162  0.79611385    -0.72200
O622        O  0.81917315  0.18344636  0.87581386    -0.72300
O623        O  0.83430433  0.22379173  0.82466625    -0.72300
O624        O  0.77700306  0.11324079  0.84733596    -0.72400
O625        O  0.83287873  0.10975066  0.84204844    -0.72300
O626        O  0.89018133  0.22030619  0.81936865    -0.72300
O627        O  0.87503506  0.17997058  0.87058336    -0.72300
O628        O  0.84802165  0.15009639  0.79089456    -0.72300
Ni629      Ni  0.80366242  0.16863906  0.83617786     1.25400
Ni630      Ni  0.86352611  0.16490516  0.83052818     1.25400
C631        C  0.81615493  0.14777058  0.78032222     0.89900
C632        C  0.85105203  0.18578651  0.88637708     0.89900
C633        C  0.87141231  0.23987300  0.81784865     0.89900
C634        C  0.79576946  0.09367311  0.84886548     0.90100
O635        O  0.66905536  0.77972901  0.93056817    -0.72200
O636        O  0.72269265  0.89028113  0.90787947    -0.72300
O637        O  0.69728121  0.84996114  0.95902108    -0.72300
O638        O  0.69445660  0.82003150  0.87934828    -0.72400
O639        O  0.63523107  0.81677839  0.87405249    -0.72300
O640        O  0.63803625  0.84667488  0.95375407    -0.72300
O641        O  0.66343449  0.88700937  0.90253845    -0.72300
O642        O  0.60979339  0.77644204  0.92520233    -0.72300
Ni643      Ni  0.69798807  0.83511807  0.91940046     1.25400
Ni644      Ni  0.63450325  0.83160940  0.91368698     1.25400
C645        C  0.63071108  0.76026673  0.93206768     0.89900
C646        C  0.70177955  0.90647279  0.90104484     0.89900
C647        C  0.66778522  0.85239224  0.96956873     0.89900
C648        C  0.66472333  0.81431768  0.86352153     0.90100
C649        C  0.77500185  0.05309827  0.85921982    -0.16300
C650        C  0.75803666  0.01958726  0.86902387     0.07700
C651        C  0.73844153  0.98058206  0.88092740     0.09600
C652        C  0.72174155  0.94706118  0.89071500    -0.17200
C653        C  0.94525526  0.38643768  0.77592213    -0.16300
C654        C  0.92860177  0.35293862  0.78574725     0.07700
C655        C  0.90908120  0.31395402  0.79768471     0.09600
C656        C  0.89216624  0.28044947  0.80749948    -0.17200
C657        C  0.10916168  0.71964478  0.69233877    -0.16300
C658        C  0.09234310  0.68617617  0.70222057     0.07700
C659        C  0.07289125  0.64723698  0.71423890     0.09600
C660        C  0.05626050  0.61376649  0.72411723    -0.17200
C661        C  0.61076906  0.71971121  0.94246203    -0.16300
C662        C  0.59417768  0.68623834  0.95233274     0.07700
C663        C  0.57479511  0.64728977  0.96433016     0.09600
C664        C  0.55804887  0.61380836  0.97418656    -0.17200
C665        C  0.27856927  0.05305883  0.60915270    -0.16300
C666        C  0.26193090  0.01953601  0.61893298     0.07700
C667        C  0.24242759  0.98052033  0.63081397     0.09600
C668        C  0.22555511  0.94699509  0.64059022    -0.17200
C669        C  0.44224599  0.38644645  0.52593051    -0.16300
C670        C  0.42543946  0.35294064  0.53574616     0.07700
C671        C  0.40597623  0.31394745  0.54767129     0.09600
C672        C  0.38934564  0.28043734  0.55747869    -0.17200
C673        C  0.66767465  0.80773700  0.75013593    -0.16300
C674        C  0.66691324  0.80443163  0.77620163     0.07700
C675        C  0.66593111  0.80407309  0.80691501     0.09600
C676        C  0.66518217  0.80681737  0.83296579    -0.17200
C677        C  0.66735984  0.85983546  0.00013522    -0.16300
C678        C  0.66677855  0.86248741  0.52620136     0.07700
C679        C  0.66605709  0.86198486  0.55691659     0.09600
C680        C  0.66549012  0.85855367  0.58296636    -0.17200
C681        C  0.72216121  0.77486059  0.64070038    -0.16300
C682        C  0.73881202  0.75798573  0.63091898     0.07700
C683        C  0.75832053  0.73847727  0.61902944     0.09600
C684        C  0.77520921  0.72184530  0.60923904    -0.17200
C685        C  0.61116872  0.89121899  0.69244463    -0.16300
C686        C  0.59452084  0.90803721  0.70232482     0.07700
C687        C  0.57504249  0.92749475  0.71434106     0.09600
C688        C  0.55821622  0.94413922  0.72421311    -0.17200
C689        C  0.00176952  0.52660356  0.83362413    -0.16300
C690        C  0.00104744  0.52928592  0.85968217     0.07700
C691        C  0.00012141  0.52883993  0.89039703     0.09600
C692        C  0.99940456  0.52546356  0.91645685    -0.17200
C693        C  0.00155828  0.47456673  0.58362043    -0.16300
C694        C  0.00097665  0.47121902  0.60967915     0.07700
C695        C  0.00024801  0.47083170  0.64039714     0.09600
C696        C  0.99966301  0.47356408  0.66645856    -0.17200
C697        C  0.89201785  0.61129198  0.55748874    -0.16300
C698        C  0.90890643  0.59467423  0.54767089     0.07700
C699        C  0.92840974  0.57518259  0.53574097     0.09600
C700        C  0.94504555  0.55830972  0.52592689    -0.17200
C701        C  0.33272993  0.14021540  0.49974134    -0.16300
C702        C  0.33334600  0.13749262  0.97368448     0.07700
C703        C  0.33414857  0.13789651  0.94297311     0.09600
C704        C  0.33477793  0.14124362  0.91691667    -0.17200
C705        C  0.33254070  0.19189739  0.74973727    -0.16300
C706        C  0.33330680  0.19530630  0.72368230     0.07700
C707        C  0.33431570  0.19581906  0.69297450     0.09600
C708        C  0.33507935  0.19318705  0.66691825    -0.17200
C709        C  0.44207883  0.05535505  0.77592372    -0.16300
C710        C  0.42524720  0.07202521  0.78574047     0.07700
C711        C  0.40576575  0.09152547  0.79767817     0.09600
C712        C  0.38911748  0.10837720  0.80749759    -0.17200
C713        C  0.05584361  0.44178143  0.97408205    -0.16300
C714        C  0.07248814  0.42496384  0.96418544     0.07700
C715        C  0.09198674  0.40553196  0.95214625     0.09600
C716        C  0.10884195  0.38892462  0.94225074    -0.17200
C717        C  0.22519682  0.27792838  0.89050500    -0.16300
C718        C  0.24203504  0.26123735  0.88073846     0.07700
C719        C  0.26150343  0.24168374  0.86887191     0.09600
C720        C  0.27813719  0.22478793  0.85910675    -0.17200
C721        C  0.47477370  0.47362934  0.91647490    -0.16300
C722        C  0.47146520  0.47094615  0.89041144     0.07700
C723        C  0.47111943  0.47139110  0.85969326     0.09600
C724        C  0.47387308  0.47477088  0.83363497    -0.17200
C725        C  0.52689192  0.52569976  0.66646474    -0.16300
C726        C  0.52954628  0.52905306  0.64040469     0.07700
C727        C  0.52905180  0.52944744  0.60969114     0.09600
C728        C  0.52563192  0.52671161  0.58363727    -0.17200
C729        C  0.85895375  0.19325151  0.91693363    -0.16300
C730        C  0.86237493  0.19593995  0.94298563     0.07700
C731        C  0.86289516  0.19549722  0.97369302     0.09600
C732        C  0.86025808  0.19213094  0.49974979    -0.17200
C733        C  0.80829241  0.14033515  0.74975647    -0.16300
C734        C  0.80495847  0.13767240  0.72369685     0.07700
C735        C  0.80455151  0.13813340  0.69298453     0.09600
C736        C  0.80725951  0.14150477  0.66692766    -0.17200
C737        C  0.14073610  0.33230784  0.74988338    -0.16300
C738        C  0.13799320  0.33297936  0.77593858     0.07700
C739        C  0.13835633  0.33384481  0.80665383     0.09600
C740        C  0.14166879  0.33452111  0.83271680    -0.17200
C741        C  0.19247154  0.33231573  0.99988423    -0.16300
C742        C  0.19590227  0.33297375  0.52593616     0.07700
C743        C  0.19641352  0.33382488  0.55664974     0.09600
C744        C  0.19376924  0.33449231  0.58271218    -0.17200
C745        C  0.05359274  0.27796122  0.64049288    -0.16300
C746        C  0.02005770  0.26134932  0.63073441     0.07700
C747        C  0.98102537  0.24190222  0.61888348     0.09600
C748        C  0.94748722  0.22506597  0.60912977    -0.17200
C749        C  0.28094465  0.38888310  0.69223926    -0.16300
C750        C  0.31440158  0.40555915  0.70214125     0.07700
C751        C  0.35332037  0.42509643  0.71419370     0.09600
C752        C  0.38677343  0.44198163  0.72410176    -0.17200
C753        C  0.52563204  0.99872376  0.83366870    -0.16300
C754        C  0.52904873  0.99942081  0.85972329     0.07700
C755        C  0.52954061  0.00031390  0.89043755     0.09600
C756        C  0.52688400  0.00100747  0.91649798    -0.17200
C757        C  0.47472003  0.00077818  0.66650271    -0.16300
C758        C  0.47139129  0.00014913  0.64044187     0.07700
C759        C  0.47103248  0.99936971  0.60972492     0.09600
C760        C  0.47379046  0.99876369  0.58366680    -0.17200
C761        C  0.72010053  0.10857574  0.55745982    -0.16300
C762        C  0.68659711  0.09169847  0.54764039     0.07700
C763        C  0.64760116  0.07217117  0.53571932     0.09600
C764        C  0.61408516  0.05549076  0.52592185    -0.17200
C765        C  0.19377164  0.85861205  0.83282274    -0.16300
C766        C  0.19649099  0.86201190  0.80676701     0.07700
C767        C  0.19608302  0.86248070  0.77605387     0.09600
C768        C  0.19272840  0.85980412  0.74999515    -0.17200
C769        C  0.14074495  0.80777510  0.99999401    -0.16300
C770        C  0.13807767  0.80444158  0.52605547     0.07700
C771        C  0.13854235  0.80405397  0.55677049     0.09600
C772        C  0.14192788  0.80677694  0.58282737    -0.17200
C773        C  0.28088491  0.89138673  0.94232284    -0.16300
C774        C  0.31434871  0.90823323  0.95221215     0.07700
C775        C  0.35327583  0.92771649  0.96424812     0.09600
C776        C  0.38673595  0.94436603  0.97414435    -0.17200
C777        C  0.80725483  0.66555381  0.91695756    -0.16300
C778        C  0.80455676  0.66622692  0.94301457     0.07700
C779        C  0.80497750  0.66709680  0.97372631     0.09600
C780        C  0.80832259  0.66776200  0.49978443    -0.17200
C781        C  0.86019526  0.66777554  0.74977895    -0.16300
C782        C  0.86283281  0.66704471  0.72372115     0.07700
C783        C  0.86232981  0.66609742  0.69301206     0.09600
C784        C  0.85893015  0.66538431  0.66695777    -0.17200
C785        C  0.72008781  0.61140722  0.80747850    -0.16300
C786        C  0.68659570  0.59481320  0.79764265     0.07700
C787        C  0.64761500  0.57536326  0.78570001     0.09600
C788        C  0.61410893  0.55851970  0.77588818    -0.17200
C789        C  0.94744949  0.72197441  0.85917662    -0.16300
C790        C  0.98098045  0.73858919  0.86894246     0.07700
C791        C  0.02000417  0.75806507  0.88080934     0.09600
C792        C  0.05353282  0.77492210  0.89057999    -0.17200
loop_ 
_geom_bond_atom_site_label_1 
_geom_bond_atom_site_label_2 
_geom_bond_distance 
_geom_bond_site_symmetry_2 
_ccdc_geom_bond_type 
O1           Ni9   1.917       .  S
O1           C11   1.279       .  A
O2           Ni9   1.917       .  S
O2           C12   1.279       .  A
O3           Ni9   1.926       .  S
O3           C13   1.281       .  A
O4           Ni9   1.924       .  S
O4           C14   1.281       .  A
O5          Ni10   1.925       .  S
O5           C14   1.281       .  A
O6          Ni10   1.924       .  S
O6           C13   1.281       .  A
O7          Ni10   1.917       .  S
O7           C12   1.279       .  A
O8          Ni10   1.917       .  S
O8           C11   1.279       .  A
Ni9         Ni10   2.393       .  S
C11         C393   1.434       .  S
C12         C389   1.434       .  S
C13         C381   1.444       .  S
C14         C385   1.444       .  S
O15         Ni23   1.917       .  S
O15          C25   1.279       .  A
O16         Ni23   1.917       .  S
O16          C26   1.280       .  A
O17         Ni23   1.926       .  S
O17          C27   1.281       .  A
O18         Ni23   1.924       .  S
O18          C28   1.281       .  A
O19         Ni24   1.926       .  S
O19          C28   1.281       .  A
O20         Ni24   1.924       .  S
O20          C27   1.281       .  A
O21         Ni24   1.917       .  S
O21          C26   1.279       .  A
O22         Ni24   1.917       .  S
O22          C25   1.279       .  A
Ni23        Ni24   2.393       .  S
C25         C396   1.434       .  S
C26         C377   1.434       .  S
C27         C369   1.444       .  S
C28         C373   1.444       .  S
O29        Ni433   1.917   1_554  S
O29          C39   1.279       .  A
O30         Ni37   1.917       .  S
O30          C40   1.280   1_545  A
O31        Ni433   1.926   1_554  S
O31          C41   1.281   1_545  A
O32         Ni37   1.924       .  S
O32          C42   1.281       .  A
O33         Ni38   1.926       .  S
O33          C42   1.281   1_565  A
O34        Ni434   1.924       .  S
O34          C41   1.281       .  A
O35         Ni38   1.917       .  S
O35          C40   1.279       .  A
O36        Ni434   1.917       .  S
O36          C39   1.280   1_565  A
Ni37        O425   1.917       .  S
Ni37        O427   1.926       .  S
Ni37        Ni38   2.393   1_545  S
Ni38        O430   1.924       .  S
Ni38        O432   1.917       .  S
C39         C368   1.434       .  S
C40         C380   1.434       .  S
C41         C364   1.444       .  S
C42         C360   1.444       .  S
O43         Ni51   1.917       .  S
O43          C53   1.279       .  A
O44         Ni51   1.917       .  S
O44          C54   1.279       .  A
O45         Ni51   1.924       .  S
O45          C55   1.281       .  A
O46         Ni51   1.926       .  S
O46          C56   1.281       .  A
O47         Ni52   1.924       .  S
O47          C56   1.281       .  A
O48         Ni52   1.926       .  S
O48          C55   1.281       .  A
O49         Ni52   1.917       .  S
O49          C54   1.280       .  A
O50         Ni52   1.917       .  S
O50          C53   1.279       .  A
Ni51        Ni52   2.393       .  S
C53         C349   1.434       .  S
C54         C353   1.434       .  S
C55         C348   1.444       .  S
C56         C341   1.444       .  S
O57         Ni65   1.917       .  S
O57          C67   1.280       .  A
O58         Ni65   1.917       .  S
O58          C68   1.280       .  A
O59         Ni65   1.924       .  S
O59          C69   1.281       .  A
O60         Ni65   1.925       .  S
O60          C70   1.281       .  A
O61         Ni66   1.924       .  S
O61          C70   1.281       .  A
O62         Ni66   1.926       .  S
O62          C69   1.281       .  A
O63         Ni66   1.917       .  S
O63          C68   1.279       .  A
O64         Ni66   1.917       .  S
O64          C67   1.279       .  A
Ni65        Ni66   2.393       .  S
C67         C352   1.434       .  S
C68         C365   1.434       .  S
C69         C340   1.444       .  S
C70         C336   1.444   1_554  S
O71         Ni79   1.917       .  S
O71          C81   1.280       .  A
O72         Ni79   1.917       .  S
O72          C82   1.280       .  A
O73         Ni79   1.924       .  S
O73          C83   1.281       .  A
O74         Ni79   1.926       .  S
O74          C84   1.281       .  A
O75         Ni80   1.924       .  S
O75          C84   1.281       .  A
O76         Ni80   1.926       .  S
O76          C83   1.281       .  A
O77         Ni80   1.917       .  S
O77          C82   1.279       .  A
O78         Ni80   1.917       .  S
O78          C81   1.279       .  A
Ni79        Ni80   2.393       .  S
C81         C392   1.434       .  S
C82         C356   1.434       .  S
C83         C328   1.444       .  S
C84         C329   1.444       .  S
O85         Ni93   1.917       .  S
O85          C95   1.279       .  A
O86         Ni93   1.917       .  S
O86          C96   1.280       .  A
O87         Ni93   1.926       .  S
O87          C97   1.281       .  A
O88         Ni93   1.924       .  S
O88          C98   1.281       .  A
O89         Ni94   1.926       .  S
O89          C98   1.281       .  A
O90         Ni94   1.924       .  S
O90          C97   1.281       .  A
O91         Ni94   1.917       .  S
O91          C96   1.280       .  A
O92         Ni94   1.917       .  S
O92          C95   1.280       .  A
Ni93        Ni94   2.393       .  S
C95         C321   1.434       .  S
C96         C320   1.435       .  S
C97         C344   1.444       .  S
C98         C345   1.444       .  S
O99        Ni107   1.917       .  S
O99         C109   1.279       .  A
O100       Ni107   1.917       .  S
O100        C110   1.280       .  A
O101       Ni107   1.926       .  S
O101        C111   1.281       .  A
O102       Ni107   1.924       .  S
O102        C112   1.281       .  A
O103       Ni108   1.925       .  S
O103        C112   1.281       .  A
O104       Ni108   1.924       .  S
O104        C111   1.281       .  A
O105       Ni108   1.917       .  S
O105        C110   1.279       .  A
O106       Ni108   1.917       .  S
O106        C109   1.279       .  A
Ni107      Ni108   2.393       .  S
C109        C324   1.434       .  S
C110        C316   1.434       .  S
C111        C308   1.444       .  S
C112        C309   1.444       .  S
O113       Ni121   1.917   1_554  S
O113        C123   1.280       .  A
O114       Ni517   1.917       .  S
O114        C124   1.280   1_655  A
O115       Ni121   1.926   1_554  S
O115        C125   1.281   1_655  A
O116       Ni517   1.924       .  S
O116        C126   1.281       .  A
O117       Ni518   1.926       .  S
O117        C126   1.281   1_455  A
O118       Ni122   1.924       .  S
O118        C125   1.281       .  A
O119       Ni518   1.917       .  S
O119        C124   1.280       .  A
O120       Ni122   1.917       .  S
O120        C123   1.280   1_455  A
Ni121       O510   1.917       .  S
Ni121       O512   1.924       .  S
Ni121      Ni122   2.393   1_656  S
Ni122       O513   1.926   1_554  S
Ni122       O515   1.917   1_554  S
C123        C304   1.435       .  S
C124        C317   1.435       .  S
C125        C297   1.444       .  S
C126        C296   1.444       .  S
O127       Ni135   1.917       .  S
O127        C137   1.280       .  A
O128       Ni135   1.917       .  S
O128        C138   1.279       .  A
O129       Ni135   1.924       .  S
O129        C139   1.281       .  A
O130       Ni135   1.926       .  S
O130        C140   1.281       .  A
O131       Ni136   1.924       .  S
O131        C140   1.281       .  A
O132       Ni136   1.926       .  S
O132        C139   1.281       .  A
O133       Ni136   1.917       .  S
O133        C138   1.280       .  A
O134       Ni136   1.917       .  S
O134        C137   1.280       .  A
Ni135      Ni136   2.393       .  S
C137        C285   1.435       .  S
C138        C289   1.434       .  S
C139        C284   1.444       .  S
C140        C277   1.444       .  S
O141       Ni149   1.917       .  S
O141        C151   1.280       .  A
O142       Ni149   1.917       .  S
O142        C152   1.280       .  A
O143       Ni149   1.924       .  S
O143        C153   1.281       .  A
O144       Ni149   1.926       .  S
O144        C154   1.281       .  A
O145       Ni150   1.924       .  S
O145        C154   1.281       .  A
O146       Ni150   1.925       .  S
O146        C153   1.281       .  A
O147       Ni150   1.917       .  S
O147        C152   1.280       .  A
O148       Ni150   1.917       .  S
O148        C151   1.280       .  A
Ni149      Ni150   2.393       .  S
C151        C288   1.435       .  S
C152        C301   1.435       .  S
C153        C388   1.444       .  S
C154        C384   1.444   1_554  S
O155       Ni163   1.917       .  S
O155        C165   1.280   1_565  A
O156       Ni163   1.917       .  S
O156        C166   1.279       .  A
O157       Ni163   1.924       .  S
O157        C167   1.281       .  A
O158       Ni163   1.926       .  S
O158        C168   1.281   1_565  A
O159       Ni164   1.924       .  S
O159        C168   1.281       .  A
O160       Ni164   1.926       .  S
O160        C167   1.281   1_545  A
O161       Ni164   1.917       .  S
O161        C166   1.279   1_545  A
O162       Ni164   1.917       .  S
O162        C165   1.279       .  A
Ni163      Ni164   2.393   1_565  S
C165        C313   1.434       .  S
C166        C292   1.434       .  S
C167        C357   1.444       .  S
C168        C361   1.444       .  S
O169       Ni177   1.924       .  S
O169        C179   1.281       .  A
O170       Ni177   1.925       .  S
O170        C180   1.281       .  A
O171       Ni177   1.917       .  S
O171        C181   1.280       .  A
O172       Ni177   1.917       .  S
O172        C182   1.279       .  A
O173       Ni178   1.917       .  S
O173        C182   1.279       .  A
O174       Ni178   1.917       .  S
O174        C181   1.279       .  A
O175       Ni178   1.924       .  S
O175        C180   1.281       .  A
O176       Ni178   1.926       .  S
O176        C179   1.281       .  A
Ni177      Ni178   2.393       .  S
C179        C305   1.444   1_554  S
C180        C312   1.444       .  S
C181        C276   1.434       .  S
C182        C269   1.434       .  S
O183       Ni191   1.926       .  S
O183        C193   1.281       .  A
O184       Ni587   1.924       .  S
O184        C194   1.281       .  A
O185       Ni191   1.917       .  S
O185        C195   1.279       .  A
O186       Ni587   1.917       .  S
O186        C196   1.279       .  A
O187       Ni588   1.917   1_554  S
O187        C196   1.280       .  A
O188       Ni192   1.917       .  S
O188        C195   1.280       .  A
O189       Ni588   1.926   1_554  S
O189        C194   1.281       .  A
O190       Ni192   1.924       .  S
O190        C193   1.281       .  A
Ni191       O580   1.924       .  S
Ni191       O582   1.917       .  S
Ni191      Ni192   2.393       .  S
Ni192       O583   1.917       .  S
Ni192       O585   1.926       .  S
C193        C325   1.444       .  S
C194        C332   1.444       .  S
C195        C268   1.434       .  S
C196        C273   1.434       .  S
O197       Ni205   1.917       .  S
O197        C207   1.279       .  A
O198       Ni205   1.917       .  S
O198        C208   1.279       .  A
O199       Ni205   1.924       .  S
O199        C209   1.281       .  A
O200       Ni205   1.926       .  S
O200        C210   1.281       .  A
O201       Ni206   1.924       .  S
O201        C210   1.281       .  A
O202       Ni206   1.926       .  S
O202        C209   1.281       .  A
O203       Ni206   1.917       .  S
O203        C208   1.280       .  A
O204       Ni206   1.917       .  S
O204        C207   1.279       .  A
Ni205      Ni206   2.393       .  S
C207        C272   1.434       .  S
C208        C261   1.434       .  S
C209        C376   1.444       .  S
C210        C372   1.444       .  S
O211       Ni219   1.924       .  S
O211        C221   1.281       .  A
O212       Ni219   1.926       .  S
O212        C222   1.281   1_655  A
O213       Ni219   1.917       .  S
O213        C223   1.280   1_655  A
O214       Ni219   1.917       .  S
O214        C224   1.280       .  A
O215       Ni220   1.917       .  S
O215        C224   1.279   1_455  A
O216       Ni220   1.917       .  S
O216        C223   1.279       .  A
O217       Ni220   1.924       .  S
O217        C222   1.281       .  A
O218       Ni220   1.926       .  S
O218        C221   1.281   1_455  A
Ni219      Ni220   2.393   1_655  S
C221        C300   1.444       .  S
C222        C293   1.444       .  S
C223        C264   1.434       .  S
C224        C257   1.434       .  S
O225       Ni233   1.926       .  S
O225        C235   1.281       .  A
O226       Ni233   1.924       .  S
O226        C236   1.281       .  A
O227       Ni233   1.917       .  S
O227        C237   1.279       .  A
O228       Ni233   1.917       .  S
O228        C238   1.279       .  A
O229       Ni234   1.917       .  S
O229        C238   1.280       .  A
O230       Ni234   1.917       .  S
O230        C237   1.280       .  A
O231       Ni234   1.925       .  S
O231        C236   1.281       .  A
O232       Ni234   1.924       .  S
O232        C235   1.281       .  A
Ni233      Ni234   2.393       .  S
C235        C337   1.444       .  S
C236        C333   1.444       .  S
C237        C260   1.434       .  S
C238        C253   1.434       .  S
O239       Ni247   1.917       .  S
O239        C249   1.279       .  A
O240       Ni247   1.917       .  S
O240        C250   1.279       .  A
O241       Ni247   1.924       .  S
O241        C251   1.281       .  A
O242       Ni247   1.926       .  S
O242        C252   1.281       .  A
O243       Ni248   1.924       .  S
O243        C252   1.281       .  A
O244       Ni248   1.926       .  S
O244        C251   1.281       .  A
O245       Ni248   1.917       .  S
O245        C250   1.280       .  A
O246       Ni248   1.917       .  S
O246        C249   1.279       .  A
Ni247      Ni248   2.393       .  S
C249        C265   1.434       .  S
C250        C256   1.434       .  S
C251        C281   1.444       .  S
C252        C280   1.444       .  S
C253        C254   1.205       .  T
C254        C255   1.411   1_545  S
C255        C256   1.205       .  T
C257        C258   1.205       .  T
C258        C259   1.411       .  S
C259        C260   1.205       .  T
C261        C262   1.205       .  T
C262        C263   1.412       .  S
C263        C264   1.205       .  T
C265        C266   1.205       .  T
C266        C267   1.411       .  S
C267        C268   1.205       .  T
C269        C270   1.205       .  T
C270        C271   1.411   1_545  S
C271        C272   1.205       .  T
C273        C274   1.205       .  T
C274        C275   1.412       .  S
C275        C276   1.205       .  T
C277        C278   1.211       .  T
C278        C279   1.421       .  S
C279        C280   1.211       .  T
C281        C678   1.211       .  T
C282        C677   1.211       .  T
C282        C283   1.421       .  S
C283        C284   1.211       .  T
C285        C286   1.205       .  T
C286        C287   1.412       .  S
C287        C288   1.205       .  T
C289        C290   1.205       .  T
C290        C291   1.411       .  S
C291        C292   1.205       .  T
C293        C294   1.211       .  T
C294        C295   1.421       .  S
C295        C296   1.211   1_455  T
C297        C298   1.211       .  T
C298        C299   1.421       .  S
C299        C300   1.211   1_455  T
C301        C302   1.205       .  T
C302        C303   1.412       .  S
C303        C304   1.205       .  T
C305        C702   1.211       .  T
C306        C701   1.211       .  T
C306        C307   1.421       .  S
C307        C308   1.211       .  T
C309        C310   1.211       .  T
C310        C311   1.421       .  S
C311        C312   1.211       .  T
C313        C314   1.205       .  T
C314        C315   1.411       .  S
C315        C316   1.205       .  T
C317        C318   1.205       .  T
C318        C319   1.412       .  S
C319        C320   1.205       .  T
C321        C322   1.205       .  T
C322        C323   1.411       .  S
C323        C324   1.205       .  T
C325        C326   1.211       .  T
C326        C327   1.421       .  S
C327        C328   1.211       .  T
C329        C330   1.211       .  T
C330        C331   1.421       .  S
C331        C332   1.211       .  T
C333        C334   1.211       .  T
C334        C335   1.421       .  S
C335        C732   1.211       .  T
C336        C731   1.211       .  T
C337        C338   1.211       .  T
C338        C339   1.421       .  S
C339        C340   1.211       .  T
C341        C342   1.211       .  T
C342        C343   1.421       .  S
C343        C344   1.211       .  T
C345        C742   1.211       .  T
C346        C741   1.211   1_554  T
C346        C347   1.421       .  S
C347        C348   1.211       .  T
C349        C350   1.205       .  T
C350        C351   1.411   1_455  S
C351        C352   1.205       .  T
C353        C354   1.205       .  T
C354        C355   1.412       .  S
C355        C356   1.205       .  T
C357        C358   1.211       .  T
C358        C359   1.421   1_565  S
C359        C360   1.211       .  T
C361        C362   1.211       .  T
C362        C363   1.421   1_545  S
C363        C364   1.211       .  T
C365        C366   1.205       .  T
C366        C367   1.411       .  S
C367        C368   1.205       .  T
C369        C370   1.211       .  T
C370        C371   1.421       .  S
C371        C372   1.211       .  T
C373        C770   1.211       .  T
C374        C769   1.211   1_554  T
C374        C375   1.421       .  S
C375        C376   1.211       .  T
C377        C378   1.205       .  T
C378        C379   1.411       .  S
C379        C380   1.205       .  T
C381        C382   1.211       .  T
C382        C383   1.421       .  S
C383        C780   1.211       .  T
C384        C779   1.211       .  T
C385        C386   1.211       .  T
C386        C387   1.421       .  S
C387        C388   1.211       .  T
C389        C390   1.205       .  T
C390        C391   1.411       .  S
C391        C392   1.205       .  T
C393        C394   1.205       .  T
C394        C395   1.411   1_655  S
C395        C396   1.205       .  T
O397       Ni405   1.917       .  S
O397        C407   1.279       .  A
O398       Ni405   1.917       .  S
O398        C408   1.279       .  A
O399       Ni405   1.926       .  S
O399        C409   1.281       .  A
O400       Ni405   1.924       .  S
O400        C410   1.281       .  A
O401       Ni406   1.925       .  S
O401        C410   1.281       .  A
O402       Ni406   1.924       .  S
O402        C409   1.281       .  A
O403       Ni406   1.917       .  S
O403        C408   1.279       .  A
O404       Ni406   1.917       .  S
O404        C407   1.279       .  A
Ni405      Ni406   2.393       .  S
C407        C789   1.434       .  S
C408        C785   1.434       .  S
C409        C777   1.444       .  S
C410        C781   1.444       .  S
O411       Ni419   1.917       .  S
O411        C421   1.279       .  A
O412       Ni419   1.917       .  S
O412        C422   1.280       .  A
O413       Ni419   1.926       .  S
O413        C423   1.281       .  A
O414       Ni419   1.924       .  S
O414        C424   1.281       .  A
O415       Ni420   1.926       .  S
O415        C424   1.281       .  A
O416       Ni420   1.924       .  S
O416        C423   1.281       .  A
O417       Ni420   1.917       .  S
O417        C422   1.279       .  A
O418       Ni420   1.917       .  S
O418        C421   1.279       .  A
Ni419      Ni420   2.393       .  S
C421        C792   1.434       .  S
C422        C773   1.434       .  S
C423        C765   1.444       .  S
C424        C769   1.444       .  S
O425        C435   1.279       .  A
O426       Ni433   1.917       .  S
O426        C436   1.280   1_545  A
O427        C437   1.281   1_545  A
O428       Ni433   1.924       .  S
O428        C438   1.281       .  A
O429       Ni434   1.926   1_556  S
O429        C438   1.281   1_565  A
O430        C437   1.281       .  A
O431       Ni434   1.917   1_556  S
O431        C436   1.279       .  A
O432        C435   1.280   1_565  A
Ni433      Ni434   2.393   1_546  S
C435        C764   1.434       .  S
C436        C776   1.434       .  S
C437        C760   1.444       .  S
C438        C756   1.444       .  S
O439       Ni447   1.917       .  S
O439        C449   1.279       .  A
O440       Ni447   1.917       .  S
O440        C450   1.279       .  A
O441       Ni447   1.924       .  S
O441        C451   1.281       .  A
O442       Ni447   1.926       .  S
O442        C452   1.281       .  A
O443       Ni448   1.924       .  S
O443        C452   1.281       .  A
O444       Ni448   1.926       .  S
O444        C451   1.281       .  A
O445       Ni448   1.917       .  S
O445        C450   1.280       .  A
O446       Ni448   1.917       .  S
O446        C449   1.279       .  A
Ni447      Ni448   2.393       .  S
C449        C745   1.434       .  S
C450        C749   1.434       .  S
C451        C744   1.444       .  S
C452        C737   1.444       .  S
O453       Ni461   1.917       .  S
O453        C463   1.280       .  A
O454       Ni461   1.917       .  S
O454        C464   1.280       .  A
O455       Ni461   1.924       .  S
O455        C465   1.281       .  A
O456       Ni461   1.925       .  S
O456        C466   1.281       .  A
O457       Ni462   1.924       .  S
O457        C466   1.281       .  A
O458       Ni462   1.926       .  S
O458        C465   1.281       .  A
O459       Ni462   1.917       .  S
O459        C464   1.279       .  A
O460       Ni462   1.917       .  S
O460        C463   1.279       .  A
Ni461      Ni462   2.393       .  S
C463        C748   1.434       .  S
C464        C761   1.434       .  S
C465        C736   1.444       .  S
C466        C732   1.444       .  S
O467       Ni475   1.917       .  S
O467        C477   1.280       .  A
O468       Ni475   1.917       .  S
O468        C478   1.280       .  A
O469       Ni475   1.924       .  S
O469        C479   1.281       .  A
O470       Ni475   1.926       .  S
O470        C480   1.281       .  A
O471       Ni476   1.924       .  S
O471        C480   1.281       .  A
O472       Ni476   1.926       .  S
O472        C479   1.281       .  A
O473       Ni476   1.917       .  S
O473        C478   1.279       .  A
O474       Ni476   1.917       .  S
O474        C477   1.279       .  A
Ni475      Ni476   2.393       .  S
C477        C788   1.434       .  S
C478        C752   1.434       .  S
C479        C724   1.444       .  S
C480        C725   1.444       .  S
O481       Ni489   1.917       .  S
O481        C491   1.279       .  A
O482       Ni489   1.917       .  S
O482        C492   1.280       .  A
O483       Ni489   1.926       .  S
O483        C493   1.281       .  A
O484       Ni489   1.924       .  S
O484        C494   1.281       .  A
O485       Ni490   1.926       .  S
O485        C494   1.281       .  A
O486       Ni490   1.924       .  S
O486        C493   1.281       .  A
O487       Ni490   1.917       .  S
O487        C492   1.280       .  A
O488       Ni490   1.917       .  S
O488        C491   1.280       .  A
Ni489      Ni490   2.393       .  S
C491        C717   1.434       .  S
C492        C716   1.435       .  S
C493        C740   1.444       .  S
C494        C741   1.444       .  S
O495       Ni503   1.917       .  S
O495        C505   1.279       .  A
O496       Ni503   1.917       .  S
O496        C506   1.280       .  A
O497       Ni503   1.926       .  S
O497        C507   1.281       .  A
O498       Ni503   1.924       .  S
O498        C508   1.281       .  A
O499       Ni504   1.925       .  S
O499        C508   1.281       .  A
O500       Ni504   1.924       .  S
O500        C507   1.281       .  A
O501       Ni504   1.917       .  S
O501        C506   1.279       .  A
O502       Ni504   1.917       .  S
O502        C505   1.279       .  A
Ni503      Ni504   2.393       .  S
C505        C720   1.434       .  S
C506        C712   1.434       .  S
C507        C704   1.444       .  S
C508        C705   1.444       .  S
O509       Ni517   1.917       .  S
O509        C519   1.280       .  A
O510        C520   1.280   1_655  A
O511       Ni517   1.926       .  S
O511        C521   1.281   1_655  A
O512        C522   1.281       .  A
O513        C522   1.281   1_455  A
O514       Ni518   1.924       .  S
O514        C521   1.281       .  A
O515        C520   1.280       .  A
O516       Ni518   1.917       .  S
O516        C519   1.280   1_455  A
Ni517      Ni518   2.393   1_655  S
C519        C700   1.435       .  S
C520        C713   1.435       .  S
C521        C693   1.444       .  S
C522        C692   1.444       .  S
O523       Ni531   1.917       .  S
O523        C533   1.280       .  A
O524       Ni531   1.917       .  S
O524        C534   1.279       .  A
O525       Ni531   1.924       .  S
O525        C535   1.281       .  A
O526       Ni531   1.926       .  S
O526        C536   1.281       .  A
O527       Ni532   1.924       .  S
O527        C536   1.281       .  A
O528       Ni532   1.926       .  S
O528        C535   1.281       .  A
O529       Ni532   1.917       .  S
O529        C534   1.280       .  A
O530       Ni532   1.917       .  S
O530        C533   1.280       .  A
Ni531      Ni532   2.393       .  S
C533        C681   1.435       .  S
C534        C685   1.434       .  S
C535        C680   1.444       .  S
C536        C673   1.444       .  S
O537       Ni545   1.917       .  S
O537        C547   1.280       .  A
O538       Ni545   1.917       .  S
O538        C548   1.280       .  A
O539       Ni545   1.924       .  S
O539        C549   1.281       .  A
O540       Ni545   1.926       .  S
O540        C550   1.281       .  A
O541       Ni546   1.924       .  S
O541        C550   1.281       .  A
O542       Ni546   1.925       .  S
O542        C549   1.281       .  A
O543       Ni546   1.917       .  S
O543        C548   1.280       .  A
O544       Ni546   1.917       .  S
O544        C547   1.280       .  A
Ni545      Ni546   2.393       .  S
C547        C684   1.435       .  S
C548        C697   1.435       .  S
C549        C784   1.444       .  S
C550        C780   1.444       .  S
O551       Ni559   1.917       .  S
O551        C561   1.279   1_565  A
O552       Ni559   1.917       .  S
O552        C562   1.279       .  A
O553       Ni559   1.924       .  S
O553        C563   1.281       .  A
O554       Ni559   1.926       .  S
O554        C564   1.281   1_565  A
O555       Ni560   1.924       .  S
O555        C564   1.281       .  A
O556       Ni560   1.926       .  S
O556        C563   1.281   1_545  A
O557       Ni560   1.917       .  S
O557        C562   1.279   1_545  A
O558       Ni560   1.917       .  S
O558        C561   1.279       .  A
Ni559      Ni560   2.393   1_565  S
C561        C709   1.434       .  S
C562        C688   1.434       .  S
C563        C753   1.444       .  S
C564        C757   1.444       .  S
O565       Ni573   1.924       .  S
O565        C575   1.281       .  A
O566       Ni573   1.925       .  S
O566        C576   1.281       .  A
O567       Ni573   1.917       .  S
O567        C577   1.280       .  A
O568       Ni573   1.917       .  S
O568        C578   1.279       .  A
O569       Ni574   1.917       .  S
O569        C578   1.279       .  A
O570       Ni574   1.917       .  S
O570        C577   1.279       .  A
O571       Ni574   1.924       .  S
O571        C576   1.281       .  A
O572       Ni574   1.926       .  S
O572        C575   1.281       .  A
Ni573      Ni574   2.393       .  S
C575        C701   1.444       .  S
C576        C708   1.444       .  S
C577        C672   1.434       .  S
C578        C665   1.434       .  S
O579       Ni587   1.926   1_556  S
O579        C589   1.281       .  A
O580        C590   1.281       .  A
O581       Ni587   1.917   1_556  S
O581        C591   1.279       .  A
O582        C592   1.279       .  A
O583        C592   1.280       .  A
O584       Ni588   1.917       .  S
O584        C591   1.280       .  A
O585        C590   1.281       .  A
O586       Ni588   1.924       .  S
O586        C589   1.281       .  A
Ni587      Ni588   2.393   1_554  S
C589        C721   1.444       .  S
C590        C728   1.444       .  S
C591        C664   1.434       .  S
C592        C669   1.434       .  S
O593       Ni601   1.917       .  S
O593        C603   1.279       .  A
O594       Ni601   1.917       .  S
O594        C604   1.279       .  A
O595       Ni601   1.924       .  S
O595        C605   1.281       .  A
O596       Ni601   1.926       .  S
O596        C606   1.281       .  A
O597       Ni602   1.924       .  S
O597        C606   1.281       .  A
O598       Ni602   1.926       .  S
O598        C605   1.281       .  A
O599       Ni602   1.917       .  S
O599        C604   1.280       .  A
O600       Ni602   1.917       .  S
O600        C603   1.279       .  A
Ni601      Ni602   2.393       .  S
C603        C668   1.434       .  S
C604        C657   1.434       .  S
C605        C772   1.444       .  S
C606        C768   1.444       .  S
O607       Ni615   1.924       .  S
O607        C617   1.281       .  A
O608       Ni615   1.926       .  S
O608        C618   1.281   1_655  A
O609       Ni615   1.917       .  S
O609        C619   1.280   1_655  A
O610       Ni615   1.917       .  S
O610        C620   1.279       .  A
O611       Ni616   1.917       .  S
O611        C620   1.279   1_455  A
O612       Ni616   1.917       .  S
O612        C619   1.279       .  A
O613       Ni616   1.924       .  S
O613        C618   1.281       .  A
O614       Ni616   1.926       .  S
O614        C617   1.281   1_455  A
Ni615      Ni616   2.393   1_655  S
C617        C696   1.444       .  S
C618        C689   1.444       .  S
C619        C660   1.434       .  S
C620        C653   1.434       .  S
O621       Ni629   1.926       .  S
O621        C631   1.281       .  A
O622       Ni629   1.924       .  S
O622        C632   1.281       .  A
O623       Ni629   1.917       .  S
O623        C633   1.279       .  A
O624       Ni629   1.917       .  S
O624        C634   1.279       .  A
O625       Ni630   1.917       .  S
O625        C634   1.280       .  A
O626       Ni630   1.917       .  S
O626        C633   1.280       .  A
O627       Ni630   1.925       .  S
O627        C632   1.281       .  A
O628       Ni630   1.924       .  S
O628        C631   1.281       .  A
Ni629      Ni630   2.393       .  S
C631        C733   1.444       .  S
C632        C729   1.444       .  S
C633        C656   1.434       .  S
C634        C649   1.434       .  S
O635       Ni643   1.917       .  S
O635        C645   1.279       .  A
O636       Ni643   1.917       .  S
O636        C646   1.279       .  A
O637       Ni643   1.924       .  S
O637        C647   1.281       .  A
O638       Ni643   1.926       .  S
O638        C648   1.281       .  A
O639       Ni644   1.924       .  S
O639        C648   1.281       .  A
O640       Ni644   1.926       .  S
O640        C647   1.281       .  A
O641       Ni644   1.917       .  S
O641        C646   1.280       .  A
O642       Ni644   1.917       .  S
O642        C645   1.279       .  A
Ni643      Ni644   2.393       .  S
C645        C661   1.434       .  S
C646        C652   1.434       .  S
C647        C677   1.444   1_556  S
C648        C676   1.444       .  S
C649        C650   1.205       .  T
C650        C651   1.411   1_545  S
C651        C652   1.205       .  T
C653        C654   1.205       .  T
C654        C655   1.411       .  S
C655        C656   1.205       .  T
C657        C658   1.205       .  T
C658        C659   1.412       .  S
C659        C660   1.205       .  T
C661        C662   1.205       .  T
C662        C663   1.411       .  S
C663        C664   1.205       .  T
C665        C666   1.205       .  T
C666        C667   1.411   1_545  S
C667        C668   1.205       .  T
C669        C670   1.205       .  T
C670        C671   1.411       .  S
C671        C672   1.205       .  T
C673        C674   1.211       .  T
C674        C675   1.421       .  S
C675        C676   1.211       .  T
C678        C679   1.421       .  S
C679        C680   1.211       .  T
C681        C682   1.205       .  T
C682        C683   1.412       .  S
C683        C684   1.205       .  T
C685        C686   1.205       .  T
C686        C687   1.411       .  S
C687        C688   1.205       .  T
C689        C690   1.211       .  T
C690        C691   1.421       .  S
C691        C692   1.211   1_455  T
C693        C694   1.211       .  T
C694        C695   1.421       .  S
C695        C696   1.211   1_455  T
C697        C698   1.205       .  T
C698        C699   1.412       .  S
C699        C700   1.205       .  T
C702        C703   1.421       .  S
C703        C704   1.211       .  T
C705        C706   1.211       .  T
C706        C707   1.421       .  S
C707        C708   1.211       .  T
C709        C710   1.205       .  T
C710        C711   1.411       .  S
C711        C712   1.205       .  T
C713        C714   1.205       .  T
C714        C715   1.412       .  S
C715        C716   1.205       .  T
C717        C718   1.205       .  T
C718        C719   1.411       .  S
C719        C720   1.205       .  T
C721        C722   1.211       .  T
C722        C723   1.421       .  S
C723        C724   1.211       .  T
C725        C726   1.211       .  T
C726        C727   1.421       .  S
C727        C728   1.211       .  T
C729        C730   1.211       .  T
C730        C731   1.421       .  S
C733        C734   1.211       .  T
C734        C735   1.421       .  S
C735        C736   1.211       .  T
C737        C738   1.211       .  T
C738        C739   1.421       .  S
C739        C740   1.211       .  T
C742        C743   1.421       .  S
C743        C744   1.211       .  T
C745        C746   1.205       .  T
C746        C747   1.411   1_455  S
C747        C748   1.205       .  T
C749        C750   1.205       .  T
C750        C751   1.412       .  S
C751        C752   1.205       .  T
C753        C754   1.211       .  T
C754        C755   1.421   1_565  S
C755        C756   1.211       .  T
C757        C758   1.211       .  T
C758        C759   1.421   1_545  S
C759        C760   1.211       .  T
C761        C762   1.205       .  T
C762        C763   1.411       .  S
C763        C764   1.205       .  T
C765        C766   1.211       .  T
C766        C767   1.421       .  S
C767        C768   1.211       .  T
C770        C771   1.421       .  S
C771        C772   1.211       .  T
C773        C774   1.205       .  T
C774        C775   1.411       .  S
C775        C776   1.205       .  T
C777        C778   1.211       .  T
C778        C779   1.421       .  S
C781        C782   1.211       .  T
C782        C783   1.421       .  S
C783        C784   1.211       .  T
C785        C786   1.205       .  T
C786        C787   1.411       .  S
C787        C788   1.205       .  T
C789        C790   1.205       .  T
C790        C791   1.411   1_655  S
C791        C792   1.205       .  T
