geometry optimzed in LAMMPS
_audit_creation_date              2020-12-01 
_audit_creation_method            'lammps2cif' 
_symmetry_space_group_name_H-M    'P1' 
_symmetry_Int_Tables_number       1 
_symmetry_cell_setting            triclinic 
loop_ 
_symmetry_equiv_pos_as_xyz 
  x,y,z 
_cell_length_a                    28.49891069 
_cell_length_b                    28.567976627398323 
_cell_length_c                    82.0374016437261 
_cell_angle_alpha                 90.1586929859392 
_cell_angle_beta                  89.89390011098476 
_cell_angle_gamma                 120.13669832741813 
loop_ 
_atom_site_label 
_atom_site_type_symbol 
_atom_site_fract_x 
_atom_site_fract_y 
_atom_site_fract_z 
_atom_site_charge 
O1          O  0.03135400  0.82909475  0.24962341    -0.73900
O2          O  0.02953934  0.69445154  0.25887137    -0.73900
O3          O  0.01973304  0.74373128  0.23192870    -0.74000
O4          O  0.04575922  0.78358727  0.27645245    -0.74000
O5          O  0.95703294  0.74258503  0.28165268    -0.74000
O6          O  0.93023261  0.70209926  0.23569239    -0.73900
O7          O  0.94045620  0.65502409  0.26318679    -0.73900
O8          O  0.94214481  0.78565743  0.25413566    -0.74000
Ni9        Ni  0.03476995  0.76392142  0.25412683     1.25400
Ni10       Ni  0.93931726  0.71963939  0.25890123     1.25400
C11         C  0.98593777  0.82855608  0.25027904     0.88300
C12         C  0.98349539  0.65200980  0.26201983     0.88200
C13         C  0.97163960  0.71819113  0.22623100     0.88200
C14         C  0.00675386  0.77256198  0.28621579     0.88400
O15         O  0.10492885  0.91277503  0.42247427    -0.73900
O16         O  0.23874212  0.91117159  0.41381669    -0.73900
O17         O  0.18981159  0.92423467  0.44040500    -0.74000
O18         O  0.14972750  0.89422899  0.39614761    -0.74000
O19         O  0.19076164  0.98212486  0.39013368    -0.74000
O20         O  0.23375862  0.01320501  0.43587317    -0.73900
O21         O  0.27865444  0.99942105  0.40845561    -0.73900
O22         O  0.14990950  0.00146920  0.41742743    -0.74000
Ni23       Ni  0.16950135  0.90744196  0.41834675     1.25400
Ni24       Ni  0.21498960  0.00219979  0.41272670     1.25400
C25         C  0.10640405  0.95847482  0.42128740     0.88300
C26         C  0.28135185  0.95654117  0.41020165     0.88200
C27         C  0.21715511  0.97261511  0.44564396     0.88200
C28         C  0.16061440  0.93199936  0.38601608     0.88400
O29         O  0.89773652  0.12824791  0.25100455    -0.73900
O30         O  0.89454565  0.26082643  0.26019100    -0.73900
O31         O  0.90557703  0.21193204  0.23336511    -0.74000
O32         O  0.88090404  0.17281326  0.27781569    -0.74000
O33         O  0.96977132  0.21606325  0.28293018    -0.74000
O34         O  0.99522511  0.25705470  0.23705886    -0.73900
O35         O  0.98360358  0.30227589  0.26472837    -0.73900
O36         O  0.98700938  0.17455864  0.25533321    -0.74000
Ni37       Ni  0.89146702  0.19204684  0.25550757     1.25400
Ni38       Ni  0.98704432  0.23916443  0.26022790     1.25400
C39         C  0.94409170  0.13064254  0.25160993     0.88300
C40         C  0.93998901  0.30403959  0.26342324     0.88200
C41         C  0.95342338  0.23981234  0.22770422     0.88200
C42         C  0.92020642  0.18562885  0.28757351     0.88400
O43         O  0.81060502  0.05724600  0.42317614    -0.73900
O44         O  0.67353022  0.05255183  0.41527091    -0.73900
O45         O  0.72474219  0.04155044  0.44146972    -0.74000
O46         O  0.76276187  0.07373492  0.39722621    -0.74000
O47         O  0.72586847  0.98625262  0.39097085    -0.74000
O48         O  0.68280215  0.95274080  0.43662484    -0.73900
O49         O  0.63653231  0.96492144  0.40922803    -0.73900
O50         O  0.76816091  0.96847776  0.41819520    -0.74000
Ni51       Ni  0.74413192  0.05939543  0.41944851     1.25400
Ni52       Ni  0.70174567  0.96492864  0.41350427     1.25400
C53         C  0.81085065  0.01237579  0.42201830     0.88300
C54         C  0.63214683  0.00682130  0.41117866     0.88200
C55         C  0.69844578  0.99298181  0.44653678     0.88200
C56         C  0.75338913  0.03665373  0.38692836     0.88400
O57         O  0.18241826  0.06007529  0.58136564    -0.73900
O58         O  0.31724304  0.06124005  0.59051248    -0.73900
O59         O  0.25548567  0.04596077  0.56388035    -0.74000
O60         O  0.24476216  0.07991769  0.60807288    -0.74000
O61         O  0.19885981  0.99224469  0.61442971    -0.74000
O62         O  0.20760479  0.95742899  0.56902984    -0.73900
O63         O  0.26838535  0.97308150  0.59602709    -0.73900
O64         O  0.13744393  0.97206096  0.58737606    -0.74000
Ni65       Ni  0.25191377  0.06502958  0.58582705     1.25400
Ni66       Ni  0.20165071  0.97068681  0.59200918     1.25400
C67         C  0.13766413  0.01477603  0.58284888     0.88300
C68         C  0.31426565  0.01582150  0.59401202     0.88200
C69         C  0.23281974  0.99697360  0.55900189     0.88200
C70         C  0.21821299  0.04232339  0.61838534     0.88400
O71         O  0.18277618  0.12429955  0.75761461    -0.73900
O72         O  0.31669333  0.25932281  0.74890732    -0.73900
O73         O  0.25779557  0.20888530  0.77572735    -0.74000
O74         O  0.24325124  0.17149157  0.73085108    -0.74000
O75         O  0.19596050  0.21288446  0.72614721    -0.74000
O76         O  0.21061750  0.25109774  0.77238710    -0.73900
O77         O  0.26741071  0.29904860  0.74491577    -0.73900
O78         O  0.13769784  0.16840940  0.75361290    -0.74000
Ni79       Ni  0.25198392  0.18965084  0.75336509     1.25400
Ni80       Ni  0.20139412  0.23446283  0.74908711     1.25400
C81         C  0.13801327  0.12505592  0.75690723     0.88300
C82         C  0.31332598  0.30186496  0.74597933     0.88200
C83         C  0.23674405  0.23549877  0.78161244     0.88200
C84         C  0.21595398  0.18361997  0.72119518     0.88400
O85         O  0.74161272  0.91029822  0.58243696    -0.73900
O86         O  0.60504476  0.90751812  0.59006145    -0.73900
O87         O  0.66932896  0.92311628  0.56421826    -0.74000
O88         O  0.67562163  0.88952840  0.60832705    -0.74000
O89         O  0.72187021  0.97703096  0.61502233    -0.74000
O90         O  0.71464609  0.01171033  0.56954371    -0.73900
O91         O  0.65289437  0.99538496  0.59618604    -0.73900
O92         O  0.78529729  0.99849946  0.58829057    -0.74000
Ni93       Ni  0.67114702  0.90442191  0.58612344     1.25400
Ni94       Ni  0.72017233  0.99873446  0.59256034     1.25400
C95         C  0.78600653  0.95596471  0.58402678     0.88300
C96         C  0.60743674  0.95267886  0.59362059     0.88200
C97         C  0.69009294  0.97193678  0.55949313     0.88200
C98         C  0.70144210  0.92672662  0.61880330     0.88400
O99         O  0.74328484  0.83196489  0.75494737    -0.73900
O100        O  0.60620208  0.69941351  0.74714741    -0.73900
O101        O  0.66958621  0.74839408  0.77320860    -0.74000
O102        O  0.67889955  0.78689853  0.72892310    -0.74000
O103        O  0.72429116  0.74421681  0.72296875    -0.74000
O104        O  0.71362908  0.70346947  0.76870425    -0.73900
O105        O  0.65317826  0.65796999  0.74179129    -0.73900
O106        O  0.78622162  0.78618446  0.74993712    -0.74000
Ni107      Ni  0.67271808  0.76806375  0.75118008     1.25400
Ni108      Ni  0.72076788  0.72125799  0.74557914     1.25400
C109        C  0.78730785  0.82995284  0.75374198     0.88300
C110        C  0.60799864  0.65618577  0.74387113     0.88200
C111        C  0.68971788  0.72031341  0.77843564     0.88200
C112        C  0.70504966  0.77477737  0.71880552     0.88400
O113        O  0.81063340  0.75055735  0.91357325    -0.73900
O114        O  0.67608507  0.61660325  0.92350597    -0.73900
O115        O  0.72361162  0.67508853  0.89649675    -0.74000
O116        O  0.76680426  0.69012486  0.94061409    -0.74000
O117        O  0.72543929  0.73695986  0.94627380    -0.74000
O118        O  0.68202343  0.72255034  0.90072512    -0.73900
O119        O  0.63724595  0.66626429  0.92833059    -0.73900
O120        O  0.76667451  0.79518174  0.91866539    -0.74000
Ni121      Ni  0.74566812  0.68121643  0.91843509     1.25400
Ni122      Ni  0.70131018  0.73176070  0.92373589     1.25400
C123        C  0.80967240  0.79514517  0.91447138     0.88300
C124        C  0.63383125  0.62027679  0.92693274     0.88200
C125        C  0.69665530  0.69634131  0.89116589     0.88200
C126        C  0.75532129  0.71708796  0.95061399     0.88400
O127        O  0.88423165  0.76447424  0.08990500    -0.73900
O128        O  0.88317874  0.62943789  0.07993498    -0.73900
O129        O  0.89457555  0.68876877  0.10711209    -0.74000
O130        O  0.86648569  0.70284506  0.06293696    -0.74000
O131        O  0.95484002  0.74843480  0.05712644    -0.74000
O132        O  0.98389523  0.73662336  0.10303415    -0.73900
O133        O  0.97216125  0.67877698  0.07549681    -0.73900
O134        O  0.97279816  0.80851543  0.08448518    -0.74000
Ni135      Ni  0.87887120  0.69452187  0.08509841     1.25400
Ni136      Ni  0.97398740  0.74458009  0.07981404     1.25400
C137        C  0.93012411  0.80903280  0.08875757     0.88300
C138        C  0.92911023  0.63281431  0.07657039     0.88200
C139        C  0.94281745  0.71071110  0.11260213     0.88200
C140        C  0.90486150  0.72858142  0.05280990     0.88400
O141        O  0.10439551  0.18743734  0.91826934    -0.73900
O142        O  0.23776665  0.32457767  0.92636004    -0.73900
O143        O  0.18891924  0.26136045  0.90025332    -0.74000
O144        O  0.14924058  0.25300112  0.94441718    -0.74000
O145        O  0.19060347  0.20688719  0.95081703    -0.74000
O146        O  0.23411410  0.21785213  0.90491020    -0.73900
O147        O  0.27800584  0.27702590  0.93226084    -0.73900
O148        O  0.15040293  0.14509368  0.92354763    -0.74000
Ni149      Ni  0.16860228  0.25827719  0.92221595     1.25400
Ni150      Ni  0.21489383  0.21020913  0.92815911     1.25400
C151        C  0.10670937  0.14360060  0.91935867     0.88300
C152        C  0.28063242  0.32231731  0.92996481     0.88200
C153        C  0.21763113  0.24181389  0.89506957     0.88200
C154        C  0.16087464  0.22746970  0.95482262     0.88400
O155        O  0.02680695  0.20287542  0.09154165    -0.73900
O156        O  0.02652411  0.33685039  0.08183182    -0.73900
O157        O  0.01394791  0.27697248  0.10889323    -0.74000
O158        O  0.04479392  0.26414953  0.06476319    -0.74000
O159        O  0.95663151  0.21689593  0.05876164    -0.74000
O160        O  0.92483753  0.22877803  0.10437700    -0.73900
O161        O  0.93797177  0.28706345  0.07676235    -0.73900
O162        O  0.93816801  0.15764215  0.08617967    -0.74000
Ni163      Ni  0.03120991  0.27218128  0.08690480     1.25400
Ni164      Ni  0.93631559  0.22118847  0.08127751     1.25400
C165        C  0.98131157  0.15798988  0.09041361     0.88300
C166        C  0.98086679  0.33323127  0.07802577     0.88200
C167        C  0.96535195  0.25417753  0.11415004     0.88200
C168        C  0.00679591  0.23672868  0.05466040     0.88400
C169        C  0.08122555  0.22256816  0.98811959     0.30300
C170        C  0.03934413  0.22739531  0.99558680    -0.36000
C171        C  0.03654859  0.22364139  0.01264016     0.16300
C172        C  0.07322439  0.21652044  0.02167129     0.22100
C173        C  0.11460330  0.21065388  0.01416268    -0.34200
C174        C  0.11696650  0.21370736  0.99703677     0.16200
O175        O  0.09237673  0.22755469  0.97244962    -0.26200
C176        C  0.13546234  0.22119139  0.97103994     0.06000
C177        C  0.15259677  0.21202274  0.98600075    -0.31100
O178        O  0.06604035  0.21873249  0.03747252    -0.22900
C179        C  0.02360006  0.22631392  0.03865502    -0.02900
C180        C  0.00317796  0.22931209  0.02355250    -0.17300
H181        H  0.01167091  0.23484036  0.98858407     0.20700
H182        H  0.14367682  0.20546937  0.02120871     0.19100
H183        H  0.18713587  0.20707428  0.98844666     0.19000
H184        H  0.97089792  0.23770435  0.02100648     0.14900
C185        C  0.92218693  0.50578994  0.07258213     0.30300
C186        C  0.89845430  0.44922747  0.07154902    -0.36000
C187        C  0.93414805  0.42865714  0.07261036     0.16300
C188        C  0.98947017  0.46105355  0.07462095     0.22100
C189        C  0.01333800  0.51766044  0.07527831    -0.34200
C190        C  0.97768105  0.53821060  0.07413770     0.16200
O191        O  0.89637792  0.53375707  0.07295739    -0.26200
C192        C  0.93618133  0.58495849  0.07458806     0.06000
C193        C  0.98737927  0.58974093  0.07524839    -0.31100
O194        O  0.01453608  0.43276190  0.07647205    -0.22900
C195        C  0.97461932  0.38138420  0.07547704    -0.02900
C196        C  0.92400343  0.37681519  0.07298745    -0.17300
H197        H  0.85504119  0.42291900  0.07047714     0.20700
H198        H  0.05650943  0.54385314  0.07702578     0.19100
H199        H  0.02626840  0.62609925  0.07699678     0.19000
H200        H  0.88481756  0.34023102  0.07222535     0.14900
C201        C  0.92323945  0.92793853  0.09518557     0.30300
C202        C  0.89946828  0.96052856  0.09656766    -0.36000
C203        C  0.93525847  0.01682941  0.09605125     0.16300
C204        C  0.99074042  0.04007630  0.09432947     0.22100
C205        C  0.01457304  0.00753007  0.09315113    -0.34200
C206        C  0.97877650  0.95126392  0.09364114     0.16200
O207        O  0.89741138  0.87425588  0.09421186    -0.26200
C208        C  0.93723832  0.86327127  0.09204531     0.06000
C209        C  0.98843515  0.90976165  0.09170718    -0.31100
O210        O  0.01584282  0.09353583  0.09286628    -0.22900
C211        C  0.97568061  0.10452292  0.09370027    -0.02900
C212        C  0.92497364  0.05828468  0.09575878    -0.17300
H213        H  0.85598652  0.94328732  0.09740351     0.20700
H214        H  0.05776966  0.02472380  0.09139034     0.19100
H215        H  0.02733503  0.91266318  0.08963963     0.19000
H216        H  0.88565222  0.05543125  0.09612820     0.14900
C217        C  0.51320650  0.49349441  0.92917509     0.30300
C218        C  0.48006465  0.43701320  0.92928200    -0.36000
C219        C  0.42386245  0.41700610  0.93004237     0.16300
C220        C  0.40109248  0.44975292  0.93039680     0.22100
C221        C  0.43427493  0.50629826  0.93038556    -0.34200
C222        C  0.49057239  0.52633454  0.92988046     0.16200
O223        O  0.56695498  0.52122948  0.92826956    -0.26200
C224        C  0.57881187  0.57261705  0.92861376     0.06000
C225        C  0.53276977  0.57786045  0.92962069    -0.31100
O226        O  0.34721747  0.42182040  0.93058859    -0.22900
C227        C  0.33563640  0.37048033  0.93060775    -0.02900
C228        C  0.38185680  0.36548290  0.93027891    -0.17300
H229        H  0.49684103  0.41041809  0.92876438     0.20700
H230        H  0.41747389  0.53288814  0.93069654     0.19100
H231        H  0.53067127  0.61467016  0.92973503     0.19000
H232        H  0.38411200  0.32876919  0.92986800     0.14900
C233        C  0.93703412  0.91343044  0.91032307     0.30300
C234        C  0.99365049  0.94605649  0.91135530    -0.36000
C235        C  0.01400598  0.00218187  0.91234535     0.16300
C236        C  0.98137105  0.02513180  0.91220430     0.22100
C237        C  0.92492140  0.99260916  0.91089600    -0.34200
C238        C  0.90457926  0.93656473  0.90998846     0.16200
O239        O  0.90863209  0.85980400  0.91104063    -0.26200
C240        C  0.85734734  0.84876177  0.91112380     0.06000
C241        C  0.85278231  0.89504130  0.91030298    -0.31100
O242        O  0.00896511  0.07833282  0.91428817    -0.22900
C243        C  0.06002356  0.08949793  0.91579375    -0.02900
C244        C  0.06532122  0.04363212  0.91463357    -0.17300
H245        H  0.01986025  0.92887225  0.91206326     0.20700
H246        H  0.89848334  0.00959503  0.91122965     0.19100
H247        H  0.81632039  0.89783058  0.91099955     0.19000
H248        H  0.10179738  0.04106685  0.91580135     0.14900
C249        C  0.83664873  0.73677748  0.01839784     0.30300
C250        C  0.79273471  0.73549657  0.01014431    -0.36000
C251        C  0.79422815  0.73392879  0.99305510     0.16300
C252        C  0.83575273  0.73275257  0.98476634     0.22100
C253        C  0.88017060  0.73502273  0.99301352    -0.34200
C254        C  0.87911312  0.73746973  0.01010665     0.16200
O255        O  0.84160632  0.73510032  0.03430419    -0.26200
C256        C  0.88828939  0.73565985  0.03637549     0.06000
C257        C  0.91381567  0.73752337  0.02170671    -0.31100
O258        O  0.82732769  0.72751984  0.96891768    -0.22900
C259        C  0.78028398  0.72625687  0.96690626    -0.02900
C260        C  0.75781571  0.73046219  0.98152295    -0.17300
H261        H  0.75923032  0.73456951  0.01661246     0.20700
H262        H  0.91259994  0.73376745  0.98656492     0.19100
H263        H  0.95061920  0.73603697  0.01985510     0.19000
H264        H  0.71941681  0.72873093  0.98341591     0.14900
C265        C  0.66760100  0.70617652  0.85021437     0.30300
C266        C  0.65449620  0.72749647  0.83679427    -0.36000
C267        C  0.66685234  0.71474526  0.82145627     0.16300
C268        C  0.69041788  0.68311917  0.81926319     0.22100
C269        C  0.70251703  0.66080396  0.83269687    -0.34200
C270        C  0.69022833  0.67366693  0.84807915     0.16200
O271        O  0.66434462  0.71708862  0.86571191    -0.26200
C272        C  0.68496370  0.69095032  0.87359258     0.06000
C273        C  0.70115674  0.66291946  0.86322574    -0.31100
O274        O  0.70161413  0.67962588  0.80377469    -0.22900
C275        C  0.68461041  0.70929921  0.79605314    -0.02900
C276        C  0.66252588  0.73171446  0.80647954    -0.17300
H277        H  0.63780959  0.75398712  0.83821542     0.20700
H278        H  0.72201267  0.63681307  0.83131124     0.19100
H279        H  0.72124344  0.64052296  0.86637396     0.19000
H280        H  0.64697762  0.75829730  0.80347432     0.14900
C281        C  0.71354765  0.85661902  0.65196380     0.30300
C282        C  0.71261018  0.81210238  0.65959485    -0.36000
C283        C  0.71694265  0.81448070  0.67664181     0.16300
C284        C  0.72125283  0.85761280  0.68547068     0.22100
C285        C  0.72359860  0.90278929  0.67780701    -0.34200
C286        C  0.71975649  0.90061297  0.66073690     0.16200
O287        O  0.70671577  0.86097731  0.63630834    -0.26200
C288        C  0.70926209  0.90865598  0.63486859     0.06000
C289        C  0.71782627  0.93559958  0.64968873    -0.31100
O290        O  0.71933017  0.84928137  0.70128031    -0.22900
C291        C  0.71464098  0.80063331  0.70270093    -0.02900
C292        C  0.71351041  0.77706993  0.68774393    -0.17300
H293        H  0.70713747  0.77734526  0.65274982     0.20700
H294        H  0.72636362  0.93634696  0.68470822     0.19100
H295        H  0.72012395  0.97395982  0.65203706     0.19000
H296        H  0.70735110  0.73709257  0.68540664     0.14900
C297        C  0.25545831  0.24320915  0.85384837     0.30300
C298        C  0.27704453  0.23106597  0.84011484    -0.36000
C299        C  0.26253720  0.24234645  0.82481558     0.16300
C300        C  0.22947467  0.26446980  0.82304939     0.22100
C301        C  0.20915677  0.27789972  0.83674428    -0.34200
C302        C  0.22327792  0.26625514  0.85197305     0.16200
O303        O  0.25942668  0.23173156  0.86930571    -0.26200
C304        C  0.22939093  0.24795293  0.87734934     0.06000
C305        C  0.20655291  0.27002993  0.86710838    -0.31100
O306        O  0.21708839  0.26703604  0.80764267    -0.26500
C307        C  0.24269449  0.24636005  0.79937249    -0.02900
C308        C  0.27188221  0.23081242  0.80946362    -0.17300
H309        H  0.30140067  0.21188553  0.84122804     0.20700
H310        H  0.18210084  0.29403953  0.83561256     0.19100
H311        H  0.17938009  0.28479299  0.87031651     0.19000
H312        H  0.29449147  0.21114804  0.80601456     0.14900
C313        C  0.92546835  0.92220561  0.75908912     0.30300
C314        C  0.98081033  0.93827139  0.76016944    -0.36000
C315        C  0.01718734  0.99424941  0.76046182     0.16300
C316        C  0.99978788  0.03137998  0.75972433     0.22100
C317        C  0.94456646  0.01534677  0.75878501    -0.34200
C318        C  0.90829225  0.95952826  0.75852112     0.16200
O319        O  0.88490062  0.87220254  0.75781249    -0.26200
C320        C  0.84112745  0.87741588  0.75655569     0.06000
C321        C  0.85311576  0.93091482  0.75695213    -0.31100
O322        O  0.04026102  0.08139564  0.75903495    -0.22900
C323        C  0.08446409  0.07680191  0.75936333    -0.02900
C324        C  0.07278575  0.02338304  0.76035870    -0.17300
H325        H  0.99453838  0.90915959  0.76032535     0.20700
H326        H  0.93097445  0.04446973  0.75787846     0.19100
H327        H  0.82560117  0.94641589  0.75565604     0.19000
H328        H  0.10080174  0.00824588  0.76016663     0.14900
C329        C  0.51470117  0.51706782  0.74421716     0.30300
C330        C  0.49939238  0.46209052  0.74526065    -0.36000
C331        C  0.44356669  0.42493710  0.74467023     0.16300
C332        C  0.40561547  0.44109819  0.74312903     0.22100
C333        C  0.42091112  0.49620761  0.74228657    -0.34200
C334        C  0.47684340  0.53344657  0.74294039     0.16200
O335        O  0.56467893  0.55812834  0.74443832    -0.26200
C336        C  0.55933862  0.60175901  0.74339383     0.06000
C337        C  0.50537338  0.58900896  0.74254591    -0.31100
O338        O  0.35566632  0.39976399  0.74296622    -0.22900
C339        C  0.36138536  0.35639902  0.74444392    -0.02900
C340        C  0.41535202  0.36958017  0.74560505    -0.17300
H341        H  0.52905762  0.44924095  0.74647062     0.20700
H342        H  0.39121552  0.50907818  0.74125473     0.19100
H343        H  0.48961679  0.61638894  0.74172133     0.19000
H344        H  0.43130561  0.34259532  0.74721677     0.14900
C345        C  0.92455433  0.00277173  0.57884077     0.30300
C346        C  0.97989576  0.04249403  0.57844108    -0.36000
C347        C  0.01661319  0.02339837  0.57798873     0.16300
C348        C  0.99959417  0.96887274  0.57793059     0.22100
C349        C  0.94428945  0.92919755  0.57805075    -0.34200
C350        C  0.90760250  0.94827614  0.57852785     0.16200
O351        O  0.88379793  0.01172527  0.58044933    -0.26200
C352        C  0.83997115  0.96249732  0.58105952     0.06000
C353        C  0.85221026  0.92121626  0.57984937    -0.31100
O354        O  0.04030215  0.95973992  0.57897574    -0.22900
C355        C  0.08420410  0.00883891  0.57962097    -0.02900
C356        C  0.07211963  0.05030802  0.57890756    -0.17300
H357        H  0.99335226  0.08525970  0.57905717     0.20700
H358        H  0.93090408  0.88642516  0.57838556     0.19100
H359        H  0.82475556  0.87797713  0.58056153     0.19000
H360        H  0.09967342  0.09345790  0.57996394     0.14900
C361        C  0.51536615  0.00037004  0.59373086     0.30300
C362        C  0.50055726  0.04058079  0.59345740    -0.36000
C363        C  0.44470794  0.02228991  0.59408647     0.16300
C364        C  0.40636591  0.96805422  0.59496793     0.22100
C365        C  0.42115672  0.92780439  0.59496199    -0.34200
C366        C  0.47699972  0.94608147  0.59427491     0.16200
O367        O  0.56520966  0.00874331  0.59359300    -0.26200
C368        C  0.55919843  0.95933868  0.59397204     0.06000
C369        C  0.50495847  0.91847965  0.59423956    -0.31100
O370        O  0.35653830  0.95974435  0.59550522    -0.22900
C371        C  0.36251044  0.00912585  0.59489270    -0.02900
C372        C  0.41672844  0.04985381  0.59391882    -0.17300
H373        H  0.53059467  0.08320585  0.59287404     0.20700
H374        H  0.39112444  0.88517295  0.59550613     0.19100
H375        H  0.48864288  0.87515360  0.59455130     0.19000
H376        H  0.43301416  0.09308450  0.59300649     0.14900
C377        C  0.19920015  0.10568401  0.65269080     0.30300
C378        C  0.19513309  0.14664802  0.66118247    -0.36000
C379        C  0.19710544  0.14522316  0.67834366     0.16300
C380        C  0.20298316  0.10617103  0.68639374     0.22100
C381        C  0.20523823  0.06443600  0.67795679    -0.34200
C382        C  0.20293797  0.06564532  0.66090201     0.16200
O383        O  0.20321658  0.10200488  0.63673245    -0.26200
C384        C  0.20867474  0.05853724  0.63467667     0.06000
C385        C  0.20812600  0.03391142  0.64932038    -0.31100
O386        O  0.20914019  0.11476255  0.70221919    -0.22900
C387        C  0.20650644  0.15952729  0.70463591    -0.02900
C388        C  0.19838317  0.18018831  0.69017961    -0.17300
H389        H  0.19277590  0.17856393  0.65483820     0.20700
H390        H  0.21058630  0.03422735  0.68427090     0.19100
H391        H  0.21390529  0.99965818  0.65119579     0.19000
H392        H  0.19672867  0.21690019  0.68853554     0.14900
C393        C  0.66386665  0.95651485  0.51774360     0.30300
C394        C  0.64565401  0.92626166  0.50325337    -0.36000
C395        C  0.66439700  0.95564860  0.48872930     0.16300
C396        C  0.69786738  0.01110788  0.48863130     0.22100
C397        C  0.71541480  0.04144457  0.50310933    -0.34200
C398        C  0.69741221  0.01197894  0.51762279     0.16200
O399        O  0.65581128  0.93649162  0.53253247    -0.26200
C400        C  0.68449311  0.97940049  0.54206448     0.06000
C401        C  0.71097149  0.02780295  0.53349821    -0.31100
O402        O  0.71279355  0.03026611  0.47383727    -0.22900
C403        C  0.68897879  0.98680689  0.46422771    -0.02900
C404        C  0.65813540  0.93891610  0.47280319    -0.17300
H405        H  0.62060004  0.88258051  0.50333442     0.20700
H406        H  0.74301497  0.08475998  0.50303874     0.19100
H407        H  0.73858108  0.06794918  0.53813922     0.19000
H408        H  0.63557382  0.89804504  0.46807728     0.14900
C409        C  0.85580674  0.10420676  0.32136205     0.30300
C410        C  0.81627110  0.05670009  0.32917735    -0.36000
C411        C  0.80591240  0.06207588  0.34563446     0.16300
C412        C  0.83241088  0.11116144  0.35363304     0.22100
C413        C  0.87227549  0.15838698  0.34589851    -0.34200
C414        C  0.88321802  0.15285448  0.32956372     0.16200
O415        O  0.86848960  0.10930657  0.30575753    -0.26200
C416        C  0.90545284  0.16154391  0.30395301     0.06000
C417        C  0.91642292  0.19070417  0.31841034    -0.31100
O418        O  0.81606969  0.10775091  0.36879526    -0.22900
C419        C  0.77884374  0.05576813  0.37078175    -0.02900
C420        C  0.77074060  0.02505954  0.35674004    -0.17300
H421        H  0.79438773  0.01848041  0.32276818     0.20700
H422        H  0.89281281  0.19698832  0.35215407     0.19100
H423        H  0.94127990  0.23401006  0.32012347     0.19000
H424        H  0.74332917  0.98215186  0.35499242     0.14900
C425        C  0.93117998  0.23904498  0.18575903     0.30300
C426        C  0.89986098  0.22109247  0.17144370    -0.36000
C427        C  0.92832474  0.23996907  0.15672150     0.16300
C428        C  0.98373735  0.27431606  0.15626431     0.22100
C429        C  0.01499009  0.29235807  0.17057629    -0.34200
C430        C  0.98661335  0.27322910  0.18527980     0.16200
O431        O  0.91313276  0.22441499  0.20070911    -0.26200
C432        C  0.95739977  0.24918098  0.20999618     0.06000
C433        C  0.00454438  0.28035896  0.20106855    -0.31100
O434        O  0.00265289  0.28479563  0.14128515    -0.22900
C435        C  0.95905327  0.25709395  0.13190194    -0.02900
C436        C  0.91136317  0.22831506  0.14084098    -0.17300
H437        H  0.85653720  0.19330219  0.17177206     0.20700
H438        H  0.05861527  0.31836372  0.17022957     0.19100
H439        H  0.04579784  0.30361703  0.20548873     0.19000
H440        H  0.87086018  0.20107133  0.13636011     0.14900
C441        C  0.25440538  0.01001018  0.51688058     0.30300
C442        C  0.27348293  0.03935964  0.50228744    -0.36000
C443        C  0.25258891  0.00979464  0.48783711     0.16300
C444        C  0.21600330  0.95494999  0.48786228     0.22100
C445        C  0.19719508  0.92547682  0.50245140    -0.34200
C446        C  0.21769961  0.95517836  0.51690802     0.16200
O447        O  0.26556669  0.03057706  0.53167363    -0.26200
C448        C  0.23591911  0.98860918  0.54140127     0.06000
C449        C  0.20532595  0.94033232  0.53290049    -0.31100
O450        O  0.20015813  0.93564718  0.47307675    -0.22900
C451        C  0.22650014  0.97850395  0.46337095    -0.02900
C452        C  0.25992018  0.02600933  0.47187235    -0.17300
H453        H  0.30132245  0.08257589  0.50224043     0.20700
H454        H  0.16748203  0.88272601  0.50251075     0.19100
H455        H  0.17626194  0.90099718  0.53770491     0.19000
H456        H  0.28500263  0.06638724  0.46706292     0.14900
C457        C  0.40062925  0.94816943  0.40682573     0.30300
C458        C  0.43314349  0.92423628  0.40533856    -0.36000
C459        C  0.48958008  0.95954364  0.40654387     0.16300
C460        C  0.51271641  0.01454039  0.40913536     0.22100
C461        C  0.48034339  0.03849938  0.41034265    -0.34200
C462        C  0.42412364  0.00336290  0.40902209     0.16200
O463        O  0.34677311  0.92296167  0.40680583    -0.26200
C464        C  0.33602962  0.96296182  0.40880131     0.06000
C465        C  0.38270560  0.01357348  0.41017438    -0.31100
O466        O  0.56611929  0.03942156  0.41080382    -0.22900
C467        C  0.57747775  0.99984353  0.40911096    -0.02900
C468        C  0.53137689  0.94944885  0.40636700    -0.17300
H469        H  0.41571720  0.88104609  0.40368788     0.20700
H470        H  0.49767801  0.08145937  0.41248436     0.19100
H471        H  0.38561432  0.05239943  0.41223627     0.19000
H472        H  0.52888267  0.91054961  0.40502170     0.14900
C473        C  0.01401996  0.00422648  0.42494965     0.30300
C474        C  0.99803340  0.04342125  0.42443775    -0.36000
C475        C  0.94211323  0.02382434  0.42536731     0.16300
C476        C  0.90487326  0.96931162  0.42662155     0.22100
C477        C  0.92088082  0.93017539  0.42724123    -0.34200
C478        C  0.97677125  0.94977450  0.42637222     0.16200
O479        O  0.06385570  0.01352170  0.42343856    -0.26200
C480        C  0.05881063  0.96459655  0.42395940     0.06000
C481        C  0.00543726  0.92312215  0.42582818    -0.31100
O482        O  0.85466476  0.95940907  0.42621113    -0.22900
C483        C  0.85938205  0.00801575  0.42480554    -0.02900
C484        C  0.91299710  0.04995751  0.42429483    -0.17300
H485        H  0.02712489  0.08606609  0.42300506     0.20700
H486        H  0.89164056  0.88733374  0.42791793     0.19100
H487        H  0.98995245  0.87992837  0.42609795     0.19000
H488        H  0.92811628  0.09270657  0.42249449     0.14900
C489        C  0.99378486  0.53405924  0.26505415     0.30300
C490        C  0.01904640  0.50272466  0.26597383    -0.36000
C491        C  0.98436302  0.44620539  0.26580773     0.16300
C492        C  0.92864684  0.42169621  0.26460278     0.22100
C493        C  0.90337425  0.45304142  0.26381749    -0.34200
C494        C  0.93799920  0.50955768  0.26419700     0.16200
O495        O  0.01822529  0.58767375  0.26461130    -0.26200
C496        C  0.97732401  0.59755434  0.26366238     0.06000
C497        C  0.92669906  0.55036688  0.26340528    -0.31100
O498        O  0.90440128  0.36809267  0.26394633    -0.22900
C499        C  0.94527567  0.35820132  0.26494640    -0.02900
C500        C  0.99572627  0.40541888  0.26615766    -0.17300
H501        H  0.06268885  0.52104512  0.26661658     0.20700
H502        H  0.85980720  0.43472843  0.26282191     0.19100
H503        H  0.88713359  0.54668648  0.26233621     0.19000
H504        H  0.03543136  0.40918489  0.26667445     0.14900
C505        C  0.99922172  0.95700282  0.24543172     0.30300
C506        C  0.02469652  0.01361715  0.24628299    -0.36000
C507        C  0.99012437  0.03544846  0.24610349     0.16300
C508        C  0.93433942  0.00417698  0.24503997     0.22100
C509        C  0.90898266  0.94769086  0.24388125    -0.34200
C510        C  0.94347226  0.92584729  0.24418784     0.16200
O511        O  0.02292082  0.92748870  0.24702801    -0.26200
C512        C  0.98155738  0.87681397  0.24680533     0.06000
C513        C  0.93147730  0.87364559  0.24493349    -0.31100
O514        O  0.90978618  0.03297302  0.24635752    -0.22900
C515        C  0.95056325  0.08341078  0.24827251    -0.02900
C516        C  0.00127345  0.08714856  0.24811395    -0.17300
H517        H  0.06813800  0.03874402  0.24773038     0.20700
H518        H  0.86530375  0.92235402  0.24350682     0.19100
H519        H  0.89155490  0.83787052  0.24504514     0.19000
H520        H  0.04070712  0.12275254  0.24992154     0.14900
C521        C  0.07698004  0.86098628  0.35299449     0.30300
C522        C  0.03349791  0.81557274  0.34545708    -0.36000
C523        C  0.03239706  0.81601143  0.32834713     0.16300
C524        C  0.07193431  0.85826906  0.31940436     0.22100
C525        C  0.11463837  0.90427773  0.32695817    -0.34200
C526        C  0.11550930  0.90403238  0.34406625     0.16200
O527        O  0.08794282  0.86668308  0.36868463    -0.26200
C528        C  0.13368349  0.91425457  0.37000295     0.06000
C529        C  0.15265268  0.93984334  0.35504418    -0.31100
O530        O  0.06637281  0.84834939  0.30364025    -0.22900
C531        C  0.02226039  0.79951873  0.30229128    -0.02900
C532        C  0.99885988  0.77739916  0.31730933    -0.17300
H533        H  0.00374095  0.78140942  0.35245233     0.20700
H534        H  0.14612727  0.93706396  0.31994308     0.19100
H535        H  0.18964301  0.97745276  0.35254497     0.19000
H536        H  0.96461496  0.73763474  0.31977448     0.14900
C537        C  0.93428938  0.69102405  0.18479382     0.30300
C538        C  0.89978321  0.67248812  0.17118481    -0.36000
C539        C  0.92521604  0.68752439  0.15584465     0.16300
C540        C  0.98070762  0.71885971  0.15388690     0.22100
C541        C  0.01519218  0.73684881  0.16748116    -0.34200
C542        C  0.98981940  0.72157848  0.18280193     0.16200
O543        O  0.91943026  0.68415414  0.20033829    -0.26200
C544        C  0.96630062  0.71032518  0.20836601     0.06000
C545        C  0.01115748  0.73407550  0.19801977    -0.31100
O546        O  0.99541166  0.73055428  0.13841465    -0.22900
C547        C  0.94858511  0.70604215  0.13034867    -0.02900
C548        C  0.90381460  0.67856501  0.14062038    -0.17300
H549        H  0.85610151  0.64899427  0.17245046     0.20700
H550        H  0.05874388  0.76199657  0.16623308     0.19100
H551        H  0.05353913  0.75881987  0.20126840     0.19000
H552        H  0.86125995  0.65668539  0.13735042     0.14900
loop_ 
_geom_bond_atom_site_label_1 
_geom_bond_atom_site_label_2 
_geom_bond_distance 
_geom_bond_site_symmetry_2 
_ccdc_geom_bond_type 
O1           Ni9   1.949       .  S
O1           C11   1.288   1_455  A
O2           Ni9   1.954       .  S
O2           C12   1.289   1_455  A
O3           Ni9   1.892       .  S
O3           C13   1.275   1_455  A
O4           Ni9   1.894       .  S
O4           C14   1.274       .  A
O5          Ni10   1.958       .  S
O5           C14   1.290   1_655  A
O6          Ni10   1.952       .  S
O6           C13   1.288       .  A
O7          Ni10   1.896       .  S
O7           C12   1.275       .  A
O8          Ni10   1.889       .  S
O8           C11   1.275       .  A
Ni9         Ni10   2.387   1_455  S
C11         C512   1.474       .  S
C12         C496   1.482       .  S
C13         C544   1.479       .  S
C14         C531   1.477       .  S
O15         Ni23   1.950       .  S
O15          C25   1.289       .  A
O16         Ni23   1.957       .  S
O16          C26   1.290       .  A
O17         Ni23   1.887       .  S
O17          C27   1.272       .  A
O18         Ni23   1.888       .  S
O18          C28   1.272       .  A
O19         Ni24   1.960   1_565  S
O19          C28   1.291       .  A
O20         Ni24   1.955       .  S
O20          C27   1.290   1_545  A
O21         Ni24   1.888   1_565  S
O21          C26   1.274       .  A
O22         Ni24   1.884       .  S
O22          C25   1.272   1_545  A
Ni23        Ni24   2.388   1_565  S
C25         C480   1.468       .  S
C26         C464   1.479       .  S
C27         C451   1.473       .  S
C28         C528   1.477       .  S
O29         Ni37   1.953       .  S
O29          C39   1.289       .  A
O30         Ni37   1.959       .  S
O30          C40   1.291       .  A
O31         Ni37   1.886       .  S
O31          C41   1.272       .  A
O32         Ni37   1.892       .  S
O32          C42   1.273       .  A
O33         Ni38   1.955       .  S
O33          C42   1.290       .  A
O34         Ni38   1.953       .  S
O34          C41   1.290       .  A
O35         Ni38   1.890       .  S
O35          C40   1.274       .  A
O36         Ni38   1.887       .  S
O36          C39   1.273       .  A
Ni37        Ni38   2.388       .  S
C39         C515   1.476       .  S
C40         C499   1.482       .  S
C41         C432   1.472       .  S
C42         C416   1.473       .  S
O43         Ni51   1.951       .  S
O43          C53   1.289       .  A
O44         Ni51   1.952       .  S
O44          C54   1.289       .  A
O45         Ni51   1.883       .  S
O45          C55   1.272   1_545  A
O46         Ni51   1.886       .  S
O46          C56   1.272       .  A
O47         Ni52   1.960       .  S
O47          C56   1.291   1_565  A
O48         Ni52   1.955       .  S
O48          C55   1.290       .  A
O49         Ni52   1.892       .  S
O49          C54   1.274   1_565  A
O50         Ni52   1.884       .  S
O50          C53   1.272   1_565  A
Ni51        Ni52   2.388   1_545  S
C53         C483   1.468       .  S
C54         C467   1.478   1_545  S
C55         C403   1.471       .  S
C56         C419   1.477       .  S
O57         Ni65   1.949       .  S
O57          C67   1.288       .  A
O58         Ni65   1.957       .  S
O58          C68   1.290       .  A
O59         Ni65   1.897       .  S
O59          C69   1.275   1_545  A
O60         Ni65   1.906       .  S
O60          C70   1.276       .  A
O61         Ni66   1.952       .  S
O61          C70   1.289   1_565  A
O62         Ni66   1.946       .  S
O62          C69   1.287       .  A
O63         Ni66   1.898       .  S
O63          C68   1.275   1_565  A
O64         Ni66   1.889       .  S
O64          C67   1.274   1_565  A
Ni65        Ni66   2.388   1_545  S
C67         C355   1.470       .  S
C68         C371   1.482       .  S
C69         C448   1.473       .  S
C70         C384   1.482       .  S
O71         Ni79   1.950       .  S
O71          C81   1.288       .  A
O72         Ni79   1.952       .  S
O72          C82   1.289       .  A
O73         Ni79   1.897       .  S
O73          C83   1.275       .  A
O74         Ni79   1.900       .  S
O74          C84   1.276       .  A
O75         Ni80   1.961       .  S
O75          C84   1.290       .  A
O76         Ni80   1.954       .  S
O76          C83   1.290       .  A
O77         Ni80   1.891       .  S
O77          C82   1.273       .  A
O78         Ni80   1.886       .  S
O78          C81   1.273       .  A
Ni79        Ni80   2.387       .  S
C81         C323   1.469       .  S
C82         C339   1.475       .  S
C83         C307   1.481       .  S
C84         C387   1.484       .  S
O85         Ni93   1.952       .  S
O85          C95   1.289       .  A
O86         Ni93   1.956       .  S
O86          C96   1.290       .  A
O87         Ni93   1.884       .  S
O87          C97   1.272       .  A
O88         Ni93   1.891       .  S
O88          C98   1.273       .  A
O89         Ni94   1.954       .  S
O89          C98   1.289       .  A
O90         Ni94   1.947   1_545  S
O90          C97   1.288   1_545  A
O91         Ni94   1.894       .  S
O91          C96   1.274       .  A
O92         Ni94   1.891       .  S
O92          C95   1.273       .  A
Ni93        Ni94   2.389       .  S
C95         C352   1.473       .  S
C96         C368   1.480       .  S
C97         C400   1.467       .  S
C98         C288   1.474       .  S
O99        Ni107   1.946       .  S
O99         C109   1.288       .  A
O100       Ni107   1.953       .  S
O100        C110   1.289       .  A
O101       Ni107   1.883       .  S
O101        C111   1.273       .  A
O102       Ni107   1.888       .  S
O102        C112   1.273       .  A
O103       Ni108   1.955       .  S
O103        C112   1.289       .  A
O104       Ni108   1.949       .  S
O104        C111   1.288       .  A
O105       Ni108   1.892       .  S
O105        C110   1.274       .  A
O106       Ni108   1.890       .  S
O106        C109   1.273       .  A
Ni107      Ni108   2.389       .  S
C109        C320   1.468       .  S
C110        C336   1.475       .  S
C111        C275   1.471       .  S
C112        C291   1.472       .  S
O113       Ni121   1.957       .  S
O113        C123   1.290       .  A
O114       Ni121   1.959       .  S
O114        C124   1.291       .  A
O115       Ni121   1.886       .  S
O115        C125   1.273       .  A
O116       Ni121   1.894       .  S
O116        C126   1.274       .  A
O117       Ni122   1.953       .  S
O117        C126   1.289       .  A
O118       Ni122   1.947       .  S
O118        C125   1.288       .  A
O119       Ni122   1.883       .  S
O119        C124   1.273       .  A
O120       Ni122   1.881       .  S
O120        C123   1.273       .  A
Ni121      Ni122   2.387       .  S
C123        C240   1.476       .  S
C124        C224   1.479       .  S
C125        C272   1.470       .  S
C126        C259   1.475       .  S
O127       Ni135   1.965       .  S
O127        C137   1.292       .  A
O128       Ni135   1.969       .  S
O128        C138   1.293       .  A
O129       Ni135   1.889       .  S
O129        C139   1.273       .  A
O130       Ni135   1.891       .  S
O130        C140   1.273       .  A
O131       Ni136   1.959       .  S
O131        C140   1.290       .  A
O132       Ni136   1.957       .  S
O132        C139   1.290       .  A
O133       Ni136   1.887       .  S
O133        C138   1.273       .  A
O134       Ni136   1.882       .  S
O134        C137   1.272       .  A
Ni135      Ni136   2.385       .  S
C137        C208   1.482       .  S
C138        C192   1.487       .  S
C139        C547   1.479       .  S
C140        C256   1.477       .  S
O141       Ni149   1.957       .  S
O141        C151   1.290       .  A
O142       Ni149   1.959       .  S
O142        C152   1.290       .  A
O143       Ni149   1.880       .  S
O143        C153   1.272       .  A
O144       Ni149   1.886       .  S
O144        C154   1.272       .  A
O145       Ni150   1.968       .  S
O145        C154   1.292       .  A
O146       Ni150   1.966       .  S
O146        C153   1.292       .  A
O147       Ni150   1.882       .  S
O147        C152   1.273       .  A
O148       Ni150   1.883       .  S
O148        C151   1.272       .  A
Ni149      Ni150   2.385       .  S
C151        C243   1.476       .  S
C152        C227   1.479       .  S
C153        C304   1.482       .  S
C154        C176   1.481       .  S
O155       Ni163   1.958       .  S
O155        C165   1.290   1_455  A
O156       Ni163   1.964       .  S
O156        C166   1.291   1_455  A
O157       Ni163   1.891       .  S
O157        C167   1.274   1_455  A
O158       Ni163   1.894       .  S
O158        C168   1.273       .  A
O159       Ni164   1.957       .  S
O159        C168   1.290   1_655  A
O160       Ni164   1.952       .  S
O160        C167   1.289       .  A
O161       Ni164   1.896       .  S
O161        C166   1.275       .  A
O162       Ni164   1.887       .  S
O162        C165   1.274       .  A
Ni163      Ni164   2.386   1_455  S
C165        C211   1.479       .  S
C166        C195   1.488       .  S
C167        C435   1.474       .  S
C168        C179   1.477       .  S
C169        C174   1.378       .  A
C169        C170   1.407       .  A
C169        O175   1.314       .  A
C170        C171   1.402   1_556  A
C170        H181   1.081       .  S
C171        C180   1.372       .  A
C171        C172   1.378       .  A
C172        C173   1.412       .  A
C172        O178   1.318       .  A
C173        C174   1.407   1_554  A
C173        H182   1.081       .  S
C174        C177   1.378       .  A
O175        C176   1.333       .  A
C176        C177   1.395       .  A
C177        H183   1.082       .  S
O178        C179   1.335       .  A
C179        C180   1.391       .  A
C180        H184   1.082   1_455  S
C185        C190   1.380       .  A
C185        C186   1.406       .  A
C185        O191   1.330       .  A
C186        C187   1.410       .  A
C186        H197   1.082       .  S
C187        C196   1.359       .  A
C187        C188   1.380       .  A
C188        C189   1.406   1_655  A
C188        O194   1.329   1_655  A
C189        C190   1.409   1_455  A
C189        H198   1.082       .  S
C190        C193   1.357       .  A
O191        C192   1.333       .  A
C192        C193   1.397       .  A
C193        H199   1.082   1_655  S
O194        C195   1.333   1_455  A
C195        C196   1.397       .  A
C196        H200   1.082       .  S
C201        C206   1.381       .  A
C201        C202   1.404       .  A
C201        O207   1.329       .  A
C202        C203   1.408   1_565  A
C202        H213   1.082       .  S
C203        C212   1.356       .  A
C203        C204   1.381       .  A
C204        C205   1.403   1_655  A
C204        O210   1.327   1_655  A
C205        C206   1.407   1_445  A
C205        H214   1.082       .  S
C206        C209   1.354       .  A
O207        C208   1.332       .  A
C208        C209   1.396       .  A
C209        H215   1.082   1_655  S
O210        C211   1.332   1_455  A
C211        C212   1.395       .  A
C212        H216   1.082       .  S
C217        C222   1.381       .  A
C217        C218   1.402       .  A
C217        O223   1.327       .  A
C218        C219   1.406       .  A
C218        H229   1.083       .  S
C219        C228   1.353       .  A
C219        C220   1.381       .  A
C220        C221   1.404       .  A
C220        O226   1.328       .  A
C221        C222   1.408       .  A
C221        H230   1.083       .  S
C222        C225   1.355       .  A
O223        C224   1.331       .  A
C224        C225   1.396       .  A
C225        H231   1.083       .  S
O226        C227   1.332       .  A
C227        C228   1.395       .  A
C228        H232   1.083       .  S
C233        C238   1.381       .  A
C233        C234   1.403       .  A
C233        O239   1.327       .  A
C234        C235   1.407   1_665  A
C234        H245   1.082   1_655  S
C235        C244   1.355       .  A
C235        C236   1.381   1_455  A
C236        C237   1.401   1_545  A
C236        O242   1.325   1_655  A
C237        C238   1.404       .  A
C237        H246   1.082   1_565  S
C238        C241   1.352       .  A
O239        C240   1.331       .  A
C240        C241   1.394       .  A
C241        H247   1.083       .  S
O242        C243   1.330       .  A
C243        C244   1.395       .  A
C244        H248   1.083       .  S
C249        C254   1.379       .  A
C249        C250   1.408       .  A
C249        O255   1.316       .  A
C250        C251   1.404   1_554  A
C250        H261   1.080       .  S
C251        C260   1.372       .  A
C251        C252   1.379       .  A
C252        C253   1.409       .  A
C252        O258   1.317       .  A
C253        C254   1.405   1_556  A
C253        H262   1.080       .  S
C254        C257   1.373       .  A
O255        C256   1.334       .  A
C256        C257   1.392       .  A
C257        H263   1.081       .  S
O258        C259   1.333       .  A
C259        C260   1.391       .  A
C260        H264   1.081       .  S
C265        C270   1.382       .  A
C265        C266   1.399       .  A
C265        O271   1.322       .  A
C266        C267   1.402       .  A
C266        H277   1.083       .  S
C267        C276   1.350       .  A
C267        C268   1.381       .  A
C268        C269   1.402       .  A
C268        O274   1.325       .  A
C269        C270   1.405       .  A
C269        H278   1.083       .  S
C270        C273   1.355       .  A
O271        C272   1.329       .  A
C272        C273   1.394       .  A
C273        H279   1.083       .  S
O274        C275   1.331       .  A
C275        C276   1.392       .  A
C276        H280   1.083       .  S
C281        C286   1.379       .  A
C281        C282   1.407       .  A
C281        O287   1.315       .  A
C282        C283   1.403       .  A
C282        H293   1.080       .  S
C283        C292   1.372       .  A
C283        C284   1.379       .  A
C284        C285   1.408       .  A
C284        O290   1.315       .  A
C285        C286   1.404       .  A
C285        H294   1.080       .  S
C286        C289   1.373       .  A
O287        C288   1.333       .  A
C288        C289   1.392       .  A
C289        H295   1.081       .  S
O290        C291   1.333       .  A
C291        C292   1.391       .  A
C292        H296   1.081       .  S
C297        C302   1.380       .  A
C297        C298   1.406       .  A
C297        O303   1.330       .  A
C298        C299   1.410       .  A
C298        H309   1.083       .  S
C299        C308   1.360       .  A
C299        C300   1.381       .  A
C300        C301   1.401       .  A
C300        O306   1.325       .  A
C301        C302   1.404       .  A
C301        H310   1.083       .  S
C302        C305   1.352       .  A
O303        C304   1.333       .  A
C304        C305   1.394       .  A
C305        H311   1.083       .  S
O306        C307   1.331       .  A
C307        C308   1.396       .  A
C308        H312   1.083       .  S
C313        C318   1.380       .  A
C313        C314   1.407       .  A
C313        O319   1.315       .  A
C314        C315   1.403   1_655  A
C314        H325   1.082       .  S
C315        C324   1.371   1_565  A
C315        C316   1.380   1_465  A
C316        C317   1.403       .  A
C316        O322   1.312   1_655  A
C317        C318   1.399   1_545  A
C317        H326   1.083       .  S
C318        C321   1.366       .  A
O319        C320   1.333       .  A
C320        C321   1.389       .  A
C321        H327   1.082       .  S
O322        C323   1.331       .  A
C323        C324   1.392       .  A
C324        H328   1.082       .  S
C329        C334   1.379       .  A
C329        C330   1.406       .  A
C329        O335   1.314       .  A
C330        C331   1.402       .  A
C330        H341   1.082       .  S
C331        C340   1.370       .  A
C331        C332   1.379       .  A
C332        C333   1.409       .  A
C332        O338   1.316       .  A
C333        C334   1.405       .  A
C333        H342   1.082       .  S
C334        C337   1.373       .  A
O335        C336   1.332       .  A
C336        C337   1.393       .  A
C337        H343   1.082       .  S
O338        C339   1.334       .  A
C339        C340   1.391       .  A
C340        H344   1.082       .  S
C345        C350   1.379   1_545  A
C345        C346   1.407       .  A
C345        O351   1.315       .  A
C346        C347   1.402   1_655  A
C346        H357   1.082       .  S
C347        C356   1.370       .  A
C347        C348   1.379   1_445  A
C348        C349   1.405       .  A
C348        O354   1.314   1_655  A
C349        C350   1.401       .  A
C349        H358   1.082       .  S
C350        C353   1.370       .  A
O351        C352   1.333   1_545  A
C352        C353   1.391       .  A
C353        H359   1.082       .  S
O354        C355   1.332   1_565  A
C355        C356   1.391       .  A
C356        H360   1.082       .  S
C361        C366   1.379   1_545  A
C361        C362   1.409       .  A
C361        O367   1.317       .  A
C362        C363   1.405       .  A
C362        H373   1.082       .  S
C363        C372   1.374       .  A
C363        C364   1.378   1_545  A
C364        C365   1.409       .  A
C364        O370   1.318       .  A
C365        C366   1.405       .  A
C365        H374   1.082       .  S
C366        C369   1.374       .  A
O367        C368   1.334   1_545  A
C368        C369   1.393       .  A
C369        H375   1.082       .  S
O370        C371   1.335   1_565  A
C371        C372   1.394       .  A
C372        H376   1.082       .  S
C377        C382   1.379       .  A
C377        C378   1.414       .  A
C377        O383   1.322       .  A
C378        C379   1.411       .  A
C378        H389   1.082       .  S
C379        C388   1.378       .  A
C379        C380   1.379       .  A
C380        C381   1.406       .  A
C380        O386   1.316       .  A
C381        C382   1.402       .  A
C381        H390   1.082       .  S
C382        C385   1.370       .  A
O383        C384   1.337       .  A
C384        C385   1.390       .  A
C385        H391   1.082   1_545  S
O386        C387   1.332       .  A
C387        C388   1.397       .  A
C388        H392   1.082       .  S
C393        C398   1.380   1_565  A
C393        C394   1.406       .  A
C393        O399   1.313       .  A
C394        C395   1.401       .  A
C394        H405   1.083       .  S
C395        C404   1.371       .  A
C395        C396   1.379   1_565  A
C396        C397   1.405       .  A
C396        O402   1.312       .  A
C397        C398   1.400       .  A
C397        H406   1.083       .  S
C398        C401   1.369       .  A
O399        C400   1.332       .  A
C400        C401   1.390   1_565  A
C401        H407   1.083       .  S
O402        C403   1.332   1_545  A
C403        C404   1.391       .  A
C404        H408   1.082       .  S
C409        C414   1.379       .  A
C409        C410   1.410       .  A
C409        O415   1.318       .  A
C410        C411   1.406       .  A
C410        H421   1.083       .  S
C411        C420   1.375       .  A
C411        C412   1.379       .  A
C412        C413   1.406       .  A
C412        O418   1.314       .  A
C413        C414   1.402       .  A
C413        H422   1.083       .  S
C414        C417   1.370       .  A
O415        C416   1.334       .  A
C416        C417   1.390       .  A
C417        H423   1.082       .  S
O418        C419   1.333       .  A
C419        C420   1.394       .  A
C420        H424   1.082   1_545  S
C425        C430   1.379       .  A
C425        C426   1.407       .  A
C425        O431   1.315       .  A
C426        C427   1.403       .  A
C426        H437   1.082       .  S
C427        C436   1.371       .  A
C427        C428   1.379       .  A
C428        C429   1.406   1_655  A
C428        O434   1.314   1_655  A
C429        C430   1.401   1_455  A
C429        H438   1.082       .  S
C430        C433   1.370   1_655  A
O431        C432   1.333       .  A
C432        C433   1.390   1_655  A
C433        H439   1.082       .  S
O434        C435   1.332   1_455  A
C435        C436   1.392       .  A
C436        H440   1.082       .  S
C441        C446   1.379   1_545  A
C441        C442   1.406       .  A
C441        O447   1.315       .  A
C442        C443   1.402       .  A
C442        H453   1.082       .  S
C443        C452   1.371       .  A
C443        C444   1.379   1_545  A
C444        C445   1.407       .  A
C444        O450   1.314       .  A
C445        C446   1.403       .  A
C445        H454   1.082       .  S
C446        C449   1.370       .  A
O447        C448   1.332   1_545  A
C448        C449   1.392       .  A
C449        H455   1.082       .  S
O450        C451   1.333       .  A
C451        C452   1.391   1_565  A
C452        H456   1.082       .  S
C457        C462   1.380   1_565  A
C457        C458   1.406       .  A
C457        O463   1.328       .  A
C458        C459   1.409       .  A
C458        H469   1.082       .  S
C459        C468   1.359       .  A
C459        C460   1.381   1_565  A
C460        C461   1.401       .  A
C460        O466   1.324       .  A
C461        C462   1.404       .  A
C461        H470   1.082       .  S
C462        C465   1.354       .  A
O463        C464   1.333       .  A
C464        C465   1.393   1_565  A
C465        H471   1.083       .  S
O466        C467   1.330   1_545  A
C467        C468   1.396       .  A
C468        H472   1.083       .  S
C473        C478   1.379   1_445  A
C473        C474   1.406   1_455  A
C473        O479   1.313       .  A
C474        C475   1.401       .  A
C474        H485   1.082   1_655  S
C475        C484   1.370       .  A
C475        C476   1.380   1_545  A
C476        C477   1.405       .  A
C476        O482   1.312       .  A
C477        C478   1.400       .  A
C477        H486   1.082       .  S
C478        C481   1.369   1_655  A
O479        C480   1.332   1_545  A
C480        C481   1.390       .  A
C481        H487   1.082   1_455  S
O482        C483   1.332   1_565  A
C483        C484   1.391       .  A
C484        H488   1.082       .  S
C489        C494   1.380       .  A
C489        C490   1.405   1_655  A
C489        O495   1.327   1_655  A
C490        C491   1.408   1_455  A
C490        H501   1.082       .  S
C491        C500   1.357       .  A
C491        C492   1.380       .  A
C492        C493   1.405       .  A
C492        O498   1.328       .  A
C493        C494   1.408       .  A
C493        H502   1.082       .  S
C494        C497   1.358       .  A
O495        C496   1.332   1_455  A
C496        C497   1.395       .  A
C497        H503   1.082       .  S
O498        C499   1.332       .  A
C499        C500   1.396       .  A
C500        H504   1.082   1_655  S
C505        C510   1.381       .  A
C505        C506   1.403   1_665  A
C505        O511   1.326   1_655  A
C506        C507   1.406   1_455  A
C506        H517   1.082       .  S
C507        C516   1.355   1_655  A
C507        C508   1.381       .  A
C508        C509   1.401   1_545  A
C508        O514   1.325       .  A
C509        C510   1.404       .  A
C509        H518   1.082       .  S
C510        C513   1.354       .  A
O511        C512   1.331   1_455  A
C512        C513   1.393       .  A
C513        H519   1.082       .  S
O514        C515   1.330       .  A
C515        C516   1.395   1_655  A
C516        H520   1.082       .  S
C521        C526   1.379       .  A
C521        C522   1.409       .  A
C521        O527   1.315       .  A
C522        C523   1.404       .  A
C522        H533   1.082       .  S
C523        C532   1.375   1_455  A
C523        C524   1.379       .  A
C524        C525   1.409       .  A
C524        O530   1.316       .  A
C525        C526   1.404       .  A
C525        H534   1.082       .  S
C526        C529   1.374       .  A
O527        C528   1.334       .  A
C528        C529   1.392       .  A
C529        H535   1.082       .  S
O530        C531   1.333       .  A
C531        C532   1.393   1_455  A
C532        H536   1.082       .  S
C537        C542   1.381       .  A
C537        C538   1.404       .  A
C537        O543   1.327       .  A
C538        C539   1.407       .  A
C538        H549   1.083       .  S
C539        C548   1.357       .  A
C539        C540   1.381       .  A
C540        C541   1.403   1_655  A
C540        O546   1.326       .  A
C541        C542   1.406   1_455  A
C541        H550   1.082       .  S
C542        C545   1.356   1_655  A
O543        C544   1.332       .  A
C544        C545   1.394   1_655  A
C545        H551   1.083       .  S
O546        C547   1.331       .  A
C547        C548   1.396       .  A
C548        H552   1.083       .  S
