geometry optimzed in LAMMPS
_audit_creation_date              2020-12-01 
_audit_creation_method            'lammps2cif' 
_symmetry_space_group_name_H-M    'P1' 
_symmetry_Int_Tables_number       1 
_symmetry_cell_setting            triclinic 
loop_ 
_symmetry_equiv_pos_as_xyz 
  x,y,z 
_cell_length_a                    46.52777209 
_cell_length_b                    46.85023141356515 
_cell_length_c                    77.3016377705847 
_cell_angle_alpha                 90.22456260266692 
_cell_angle_beta                  90.0781172657007 
_cell_angle_gamma                 90.09475177650484 
loop_ 
_atom_site_label 
_atom_site_type_symbol 
_atom_site_fract_x 
_atom_site_fract_y 
_atom_site_fract_z 
_atom_site_charge 
O1          O  0.68242727  0.64579420  0.93914490    -0.56800
C2          C  0.63810392  0.61954550  0.89984661     0.75900
O3          O  0.68977519  0.68857025  0.88540567    -0.57900
C4          C  0.70850308  0.65047270  0.94291451     0.75800
C5          C  0.73227834  0.61335129  0.89364616     0.78200
Cd6        Cd  0.68963797  0.65054186  0.90775318     1.37500
O7          O  0.64321191  0.62769123  0.91519646    -0.56800
O8          O  0.70707908  0.60527006  0.89716192    -0.55600
C9          C  0.67933038  0.70759472  0.89515614     0.78200
O10         O  0.73829587  0.63934798  0.89645757    -0.58000
O11         O  0.65633024  0.62625893  0.88845251    -0.56400
O12         O  0.72543499  0.65557092  0.93053581    -0.56400
O13         O  0.67464160  0.70057115  0.91064278    -0.55600
O14         O  0.29454121  0.81716133  0.94501906    -0.56800
C15         C  0.34132339  0.84277415  0.90154877     0.75900
O16         O  0.28551945  0.77389636  0.89220038    -0.57900
C17         C  0.26901979  0.80911956  0.94806639     0.75800
C18         C  0.24889828  0.85374723  0.89911659     0.78200
Cd19       Cd  0.28988513  0.81451006  0.91288152     1.37500
O20         O  0.33510357  0.84188070  0.91751926    -0.56800
O21         O  0.27218990  0.86167164  0.90606162    -0.55600
C22         C  0.30277650  0.75804473  0.90041873     0.78200
O23         O  0.24421643  0.82710913  0.89826531    -0.58000
O24         O  0.32409433  0.83057414  0.89123540    -0.56400
O25         O  0.25355556  0.80339224  0.93503887    -0.56400
O26         O  0.31268631  0.76780183  0.91447794    -0.55600
O27         O  0.57038148  0.92959479  0.81626205    -0.56800
C28         C  0.60141909  0.88053941  0.85595324     0.75900
O29         O  0.61831282  0.94932117  0.85893318    -0.57900
C30         C  0.57052877  0.95633278  0.81385577     0.75800
C31         C  0.51408188  0.92262498  0.86061265     0.78200
Cd32       Cd  0.57190962  0.93284513  0.84826050     1.37500
O33         O  0.59800004  0.88804400  0.84034464    -0.56800
O34         O  0.52213654  0.91572874  0.84558003    -0.55600
C35         C  0.60962596  0.97349093  0.86402102     0.78200
O36         O  0.53226159  0.93566906  0.86990915    -0.58000
O37         O  0.59096353  0.89673886  0.86741530    -0.56400
O38         O  0.57162211  0.97192554  0.82719341    -0.56400
O39         O  0.58307995  0.97880053  0.86228406    -0.55600
O40         O  0.41102804  0.54334229  0.81690225    -0.56800
C41         C  0.38353099  0.58685644  0.85894345     0.75900
O42         O  0.39498761  0.48766102  0.86327739    -0.57900
C43         C  0.41120527  0.51733366  0.81234721     0.75800
C44         C  0.46530201  0.53799381  0.86165752     0.78200
Cd45       Cd  0.40761638  0.53295500  0.84849898     1.37500
O46         O  0.37892743  0.57715007  0.84388313    -0.56800
O47         O  0.45927211  0.54199383  0.84590198    -0.55600
C48         C  0.36814642  0.49194715  0.86252388     0.78200
O49         O  0.44503556  0.52972420  0.87129840    -0.58000
O50         O  0.39938866  0.57208947  0.86866745    -0.56400
O51         O  0.41016252  0.49908885  0.82435496    -0.56400
O52         O  0.35998303  0.51473765  0.85536418    -0.55600
O53         O  0.08672762  0.04115642  0.81586170    -0.56800
C54         C  0.10229567  0.08805088  0.85818114     0.75900
O55         O  0.03699713  0.03010393  0.86737709    -0.57900
C56         C  0.07891006  0.01617649  0.81163452     0.75800
C57         C  0.11491167  0.99161578  0.86293579     0.78200
Cd58       Cd  0.07834061  0.03411372  0.84735332     1.37500
O59         O  0.10660116  0.07882070  0.84297498    -0.56800
O60         O  0.12430676  0.01559665  0.85809093    -0.55600
C61         C  0.01954147  0.04376545  0.85798519     0.78200
O62         O  0.08825794  0.98720057  0.86102961    -0.58000
O63         O  0.08746578  0.07240755  0.86803045    -0.56400
O64         O  0.07055266  0.00010919  0.82372078    -0.56400
O65         O  0.02855038  0.05125667  0.84325106    -0.55600
O66         O  0.86849779  0.38466620  0.83637170    -0.56800
C67         C  0.89884002  0.44927563  0.80542078     0.75900
O68         O  0.85136947  0.44968890  0.84894477    -0.57900
C69         C  0.86849863  0.37858718  0.85234565     0.75800
C70         C  0.95459640  0.41656215  0.85274470     0.78200
Cd71       Cd  0.89717303  0.42941978  0.84074089     1.37500
O72         O  0.90680783  0.46461796  0.81803868    -0.56800
O73         O  0.94564457  0.40824820  0.83810117    -0.55600
C74         C  0.86115846  0.47235051  0.85563839     0.78200
O75         O  0.93771286  0.43209819  0.86144474    -0.58000
O76         O  0.89069908  0.42411985  0.80891985    -0.56400
O77         O  0.88116337  0.39587254  0.86235938    -0.56400
O78         O  0.88819685  0.47553116  0.85564293    -0.55600
O79         O  0.17784493  0.32651523  0.94285568    -0.56800
C80         C  0.12905915  0.34780769  0.89951883     0.75900
O81         O  0.20117654  0.37033740  0.90339232    -0.57900
C82         C  0.20346390  0.31892410  0.94600729     0.75800
C83         C  0.17200516  0.26546580  0.89872399     0.78200
Cd84       Cd  0.18267367  0.32286371  0.91083889     1.37500
O85         O  0.14722633  0.33706442  0.88923816    -0.56800
O86         O  0.18865004  0.28186317  0.89041905    -0.55600
C87         C  0.22558480  0.36197369  0.89830385     0.78200
O88         O  0.16184575  0.27510657  0.91272205    -0.58000
O89         O  0.13566193  0.34784031  0.91546406    -0.56400
O90         O  0.21882614  0.31252877  0.93310988    -0.56400
O91         O  0.22992900  0.33530347  0.89821366    -0.55600
O92         O  0.79747656  0.14240735  0.94220573    -0.56800
C93         C  0.84622581  0.12150991  0.90000354     0.75900
O94         O  0.74592874  0.13407680  0.89658576    -0.57900
C95         C  0.77249151  0.15158389  0.94559659     0.75800
C96         C  0.80332720  0.20308205  0.89695435     0.78200
Cd97       Cd  0.79253292  0.14674795  0.91033538     1.37500
O98         O  0.83783081  0.11932372  0.91554792    -0.56800
O99         O  0.81163820  0.19569361  0.91187260    -0.55600
C100        C  0.75026826  0.10742760  0.89711940     0.78200
O101        O  0.78855812  0.18505393  0.88852694    -0.58000
O102        O  0.83002803  0.13502822  0.88979256    -0.56400
O103        O  0.75744335  0.15952521  0.93286769    -0.56400
O104        O  0.77425828  0.09935424  0.90297807    -0.55600
O105        O  0.63623377  0.84680778  0.41650154    -0.56800
C106        C  0.69927745  0.82161090  0.44849037     0.75900
O107        O  0.68739009  0.78106807  0.39157884    -0.57900
C108        C  0.62949239  0.84594182  0.40062424     0.75800
C109        C  0.72440529  0.85694035  0.39723029     0.78200
Cd110      Cd  0.68229954  0.82067402  0.41249107     1.37500
O111        O  0.67328256  0.82532701  0.44415717    -0.56800
O112        O  0.70047583  0.86628626  0.40244896    -0.55600
C113        C  0.67643348  0.76230135  0.40123156     0.78200
O114        O  0.72921899  0.83056826  0.39918150    -0.58000
O115        O  0.71700698  0.81765542  0.43633529    -0.56400
O116        O  0.64674929  0.83327642  0.39061458    -0.56400
O117        O  0.66914685  0.77019561  0.41624621    -0.55600
O118        O  0.57477519  0.54622098  0.31604954    -0.56800
C119        C  0.60340235  0.58896316  0.35955972     0.75900
O120        O  0.53360803  0.53321155  0.36768849    -0.57900
C121        C  0.56904713  0.52043759  0.31239100     0.75800
C122        C  0.61335288  0.49530388  0.35880417     0.78200
Cd123      Cd  0.57480225  0.53865036  0.34760420     1.37500
O124        O  0.60212035  0.58340773  0.34352635    -0.56800
O125        O  0.62166858  0.51675177  0.35027306    -0.55600
C126        C  0.51726868  0.54929697  0.35898075     0.78200
O127        O  0.58698167  0.49421502  0.36286967    -0.58000
O128        O  0.59152623  0.57146259  0.36969881    -0.56400
O129        O  0.56551945  0.50356023  0.32493276    -0.56400
O130        O  0.52720185  0.55910567  0.34500689    -0.55600
O131        O  0.29401280  0.64557161  0.43972298    -0.56800
C132        C  0.34116931  0.62160698  0.39927560     0.75900
O133        O  0.24052869  0.63600995  0.39433804    -0.57900
C134        C  0.26773790  0.64964510  0.44315573     0.75800
C135        C  0.29731455  0.70517671  0.39745092     0.78200
Cd136      Cd  0.28741485  0.64737772  0.40819706     1.37500
O137        O  0.33159820  0.61946695  0.41455547    -0.56800
O138        O  0.30449728  0.69632083  0.41225157    -0.55600
C139        C  0.24492685  0.60934592  0.39392535     0.78200
O140        O  0.28426320  0.68767422  0.38769847    -0.58000
O141        O  0.32595138  0.63525760  0.38858203    -0.56400
O142        O  0.25091467  0.65316801  0.43050312    -0.56400
O143        O  0.26916639  0.60081314  0.39916925    -0.55600
O144        O  0.36697252  0.88808035  0.34024756    -0.56800
C145        C  0.40221025  0.94731482  0.30906210     0.75900
O146        O  0.38865071  0.97752452  0.35797923    -0.57900
C147        C  0.37176621  0.87790076  0.35514310     0.75800
C148        C  0.45586142  0.92059415  0.35754827     0.78200
Cd149      Cd  0.39879130  0.93026368  0.34475442     1.37500
O150        O  0.39854093  0.92136149  0.31305367    -0.56800
O151        O  0.44816670  0.91303583  0.34252073    -0.55600
C152        C  0.36195381  0.97287272  0.35940777     0.78200
O153        O  0.43776211  0.93443937  0.36642332    -0.58000
O154        O  0.40459412  0.96487410  0.32142526    -0.56400
O155        O  0.38894245  0.89160745  0.36473649    -0.56400
O156        O  0.35284530  0.94882980  0.35432424    -0.55600
O157        O  0.17417606  0.14183030  0.44689275    -0.56800
C158        C  0.13437618  0.11095105  0.40311889     0.75900
O159        O  0.18847803  0.18429837  0.39522809    -0.57900
C160        C  0.19966440  0.14862593  0.45098390     0.75800
C161        C  0.22906884  0.10661249  0.40281199     0.78200
Cd162      Cd  0.18349510  0.14283977  0.41514855     1.37500
O163        O  0.14000698  0.11281508  0.41913562    -0.56800
O164        O  0.20583727  0.09705123  0.40896385    -0.55600
C165        C  0.17006821  0.19960566  0.40294438     0.78200
O166        O  0.23174351  0.13351951  0.40219213    -0.58000
O167        O  0.15130153  0.12365439  0.39292172    -0.56400
O168        O  0.21697233  0.15290590  0.43868931    -0.56400
O169        O  0.15878640  0.18908889  0.41633953    -0.55600
O170        O  0.07029154  0.41816177  0.31735888    -0.56800
C171        C  0.09570663  0.37342997  0.36058945     0.75900
O172        O  0.08106557  0.47484318  0.36150211    -0.57900
C173        C  0.06997944  0.44444528  0.31353039     0.75800
C174        C  0.01190565  0.42116983  0.35916767     0.78200
Cd175      Cd  0.07092647  0.42683070  0.34911735     1.37500
O176        O  0.10087048  0.38270683  0.34551426    -0.56800
O177        O  0.02054846  0.41412211  0.34426312    -0.55600
C178        C  0.10750330  0.46990258  0.36390844     0.78200
O179        O  0.03023449  0.43223555  0.36926676    -0.58000
O180        O  0.07917492  0.38840441  0.36986469    -0.56400
O181        O  0.07082080  0.46196163  0.32597367    -0.56400
O182        O  0.11635305  0.44517327  0.36007479    -0.55600
O183        O  0.89734064  0.03399818  0.31339670    -0.56800
C184        C  0.87659123  0.08315302  0.35336442     0.75900
O185        O  0.88813904  0.98290762  0.35743958    -0.57900
C186        C  0.90563580  0.00888454  0.30992853     0.75800
C187        C  0.96095039  0.03841930  0.35809339     0.78200
Cd188      Cd  0.90300491  0.02944405  0.34500188     1.37500
O189        O  0.88020992  0.07611548  0.33766000    -0.56800
O190        O  0.95364475  0.04486914  0.34285015    -0.55600
C191        C  0.86166367  0.98905413  0.35802940     0.78200
O192        O  0.94184549  0.02677531  0.36733909    -0.58000
O193        O  0.88552608  0.06583869  0.36465280    -0.56400
O194        O  0.91329113  0.99360553  0.32256671    -0.56400
O195        O  0.85469601  0.01384364  0.35327913    -0.55600
O196        O  0.82935755  0.34109741  0.41241865    -0.56800
C197        C  0.76508274  0.31421461  0.43990333     0.75900
O198        O  0.73730618  0.32403931  0.39156444    -0.57900
C199        C  0.83776808  0.34278238  0.39687467     0.75800
C200        C  0.79745154  0.25645144  0.39321392     0.78200
Cd201      Cd  0.78508777  0.31383740  0.40474610     1.37500
O202        O  0.79163648  0.31486659  0.43638846    -0.56800
O203        O  0.80146920  0.26441775  0.40865056    -0.55600
C204        C  0.74291527  0.35017641  0.38900429     0.78200
O205        O  0.78575576  0.27430434  0.38322640    -0.58000
O206        O  0.74788284  0.31310850  0.42723803    -0.56400
O207        O  0.82207573  0.33116441  0.38550721    -0.56400
O208        O  0.76770769  0.35877223  0.39323713    -0.55600
O209        O  0.83923886  0.60237221  0.08703000    -0.56800
C210        C  0.77972386  0.63889769  0.05641566     0.75900
O211        O  0.77385816  0.58649701  0.09813557    -0.57900
C212        C  0.84590639  0.60253236  0.10294002     0.75800
C213        C  0.80619319  0.68915390  0.10477129     0.78200
Cd214      Cd  0.79576983  0.63249060  0.09169782     1.37500
O215        O  0.80570049  0.63379517  0.06024681    -0.56800
O216        O  0.81581378  0.68063958  0.09037166    -0.55600
C217        C  0.74979632  0.59613404  0.10296850     0.78200
O218        O  0.79083584  0.67172499  0.11315882    -0.58000
O219        O  0.76213156  0.64112116  0.06874977    -0.56400
O220        O  0.82961806  0.61623029  0.11305477    -0.56400
O221        O  0.74680222  0.62299031  0.10294287    -0.55600
O222        O  0.07075964  0.48976564  0.18528515    -0.56800
C223        C  0.09601467  0.57882813  0.14981867     0.75900
O224        O  0.12138775  0.50726657  0.15623160    -0.57900
C225        C  0.07143866  0.50727205  0.19776436     0.75800
C226        C  0.01527862  0.52904382  0.15074127     0.78200
Cd227      Cd  0.07354434  0.52513109  0.16211971     1.37500
O228        O  0.08367715  0.56109242  0.13995084    -0.56800
O229        O  0.02291751  0.53729646  0.16564568    -0.55600
C230        C  0.11343766  0.48485169  0.14839026     0.78200
O231        O  0.03413353  0.51702211  0.14150117    -0.58000
O232        O  0.09778439  0.57215193  0.16565300    -0.56400
O233        O  0.07323747  0.53349361  0.19392547    -0.56400
O234        O  0.08665781  0.48088561  0.14668076    -0.55600
O235        O  0.89586109  0.91317101  0.19157175    -0.56800
C236        C  0.86701013  0.86661118  0.14970500     0.75900
O237        O  0.87911818  0.96765848  0.14664076    -0.57900
C238        C  0.89432310  0.93947321  0.19534600     0.75800
C239        C  0.94957821  0.91634826  0.14746332     0.78200
Cd240      Cd  0.89104512  0.92100975  0.15969122     1.37500
O241        O  0.86256779  0.87618156  0.16483362    -0.56800
O242        O  0.94249705  0.91050225  0.16281771    -0.55600
C243        C  0.85256205  0.96245532  0.14490210     0.78200
O244        O  0.92991390  0.92583299  0.13775571    -0.58000
O245        O  0.88215885  0.88188941  0.13985621    -0.56400
O246        O  0.89074848  0.95647579  0.18289057    -0.56400
O247        O  0.84397905  0.93805772  0.14960114    -0.55600
O248        O  0.17064847  0.80963509  0.06523081    -0.56800
C249        C  0.12450883  0.84114409  0.10767671     0.75900
O250        O  0.18038261  0.77239234  0.11829349    -0.57900
C251        C  0.19705424  0.80515165  0.06225849     0.75800
C252        C  0.21990238  0.85044978  0.10993581     0.78200
Cd253      Cd  0.17644974  0.81206433  0.09718431     1.37500
O254        O  0.13195779  0.84081237  0.09190775    -0.56800
O255        O  0.19812779  0.85889170  0.10161285    -0.55600
C256        C  0.16625213  0.75482103  0.10912789     0.78200
O257        O  0.22169415  0.82388425  0.11279257    -0.58000
O258        O  0.14054475  0.82787842  0.11810917    -0.56400
O259        O  0.21339132  0.80336257  0.07528492    -0.56400
O260        O  0.15776977  0.76348997  0.09453691    -0.55600
O261        O  0.30252882  0.32071832  0.06376585    -0.56800
C262        C  0.34562153  0.34895587  0.10805804     0.75900
O263        O  0.24808254  0.32574365  0.10950623    -0.57900
C264        C  0.27596734  0.31869570  0.06028994     0.75800
C265        C  0.30581287  0.26155297  0.10677224     0.78200
Cd266      Cd  0.29548372  0.31909827  0.09581284     1.37500
O267        O  0.33843496  0.35083347  0.09227357    -0.56800
O268        O  0.31523196  0.27107919  0.09258739    -0.55600
C269        C  0.25145308  0.35242138  0.11129510     0.78200
O270        O  0.29093770  0.27841175  0.11587626    -0.58000
O271        O  0.33007115  0.33343582  0.11754348    -0.56400
O272        O  0.25911007  0.31650075  0.07301139    -0.56400
O273        O  0.27491364  0.36302576  0.10616460    -0.55600
O274        O  0.38359585  0.06719586  0.13686683    -0.56800
C275        C  0.39828929  0.01490562  0.19430123     0.75900
O276        O  0.34818243  0.01321886  0.14926269    -0.57900
C277        C  0.37061186  0.08383025  0.14710140     0.75800
C278        C  0.45331857  0.03580001  0.14557029     0.78200
Cd279      Cd  0.39542148  0.03077959  0.15834303     1.37500
O280        O  0.39664290  0.99695794  0.18212244    -0.56800
O281        O  0.44620510  0.04429298  0.16049098    -0.55600
C282        C  0.35606850  0.98802680  0.14575757     0.78200
O283        O  0.43407962  0.02339855  0.13673203    -0.58000
O284        O  0.39841330  0.04102653  0.19008185    -0.56400
O285        O  0.36895020  0.07612618  0.16277316    -0.56400
O286        O  0.38250555  0.98246748  0.14765106    -0.55600
O287        O  0.57334973  0.41915788  0.19583310    -0.56800
C288        C  0.60286599  0.37233297  0.15382497     0.75900
O289        O  0.53669200  0.43317284  0.14360260    -0.57900
C290        C  0.57593964  0.44545258  0.19937693     0.75800
C291        C  0.61415045  0.46745140  0.14848483     0.78200
Cd292      Cd  0.57678058  0.42603108  0.16407893     1.37500
O293        O  0.60345970  0.38025462  0.16951437    -0.56800
O294        O  0.62301604  0.44385417  0.15432163    -0.55600
C295        C  0.51777355  0.42176054  0.15304673     0.78200
O296        O  0.58749037  0.47240084  0.14980174    -0.58000
O297        O  0.58988947  0.38857549  0.14341691    -0.56400
O298        O  0.57970653  0.46214664  0.18680273    -0.56400
O299        O  0.52580031  0.41340248  0.16779048    -0.55600
O300        O  0.63384049  0.11314091  0.08828247    -0.56800
C301        C  0.69945344  0.14335945  0.05959184     0.75900
O302        O  0.68356728  0.17927028  0.11763118    -0.57900
C303        C  0.62625720  0.11206176  0.10400547     0.75800
C304        C  0.71984003  0.10241109  0.10963723     0.78200
Cd305      Cd  0.67890427  0.14110237  0.09497439     1.37500
O306        O  0.67293594  0.14604124  0.06294761    -0.56800
O307        O  0.69581984  0.09429069  0.10375753    -0.55600
C308        C  0.67273644  0.19886504  0.10852899     0.78200
O309        O  0.72512768  0.12895233  0.10914025    -0.58000
O310        O  0.71597325  0.13963733  0.07237511    -0.56400
O311        O  0.64203471  0.12510479  0.11473685    -0.56400
O312        O  0.66583010  0.19209738  0.09323099    -0.55600
O313        O  0.82541870  0.85350353  0.59636916    -0.56800
C314        C  0.76069518  0.82750645  0.56500418     0.75900
O315        O  0.77092418  0.78621499  0.62031576    -0.57900
C316        C  0.83422816  0.84947574  0.61168175     0.75800
C317        C  0.74092041  0.86751193  0.61581279     0.78200
Cd318      Cd  0.77954123  0.82721254  0.60054713     1.37500
O319        O  0.78708479  0.82539210  0.56884094    -0.56800
O320        O  0.76502201  0.87498717  0.60980197    -0.55600
C321        C  0.78229782  0.76794184  0.61035505     0.78200
O322        O  0.73484572  0.84114692  0.61524343    -0.58000
O323        O  0.74331943  0.82990760  0.57747564    -0.56400
O324        O  0.81838710  0.83455446  0.62136896    -0.56400
O325        O  0.79068482  0.77679768  0.59579698    -0.55600
O326        O  0.86422987  0.58777126  0.66219042    -0.56800
C327        C  0.89764193  0.52660574  0.69270814     0.75900
O328        O  0.88915898  0.49797341  0.64494768    -0.57900
C329        C  0.86488717  0.59619074  0.64662573     0.75800
C330        C  0.95633642  0.55613822  0.64729110     0.78200
Cd331      Cd  0.89720563  0.54637135  0.65738160     1.37500
O332        O  0.89801160  0.55310470  0.68943697    -0.56800
O333        O  0.94659632  0.56443169  0.66170339    -0.55600
C334        C  0.86280884  0.50235164  0.64178231     0.78200
O335        O  0.93904827  0.54272562  0.63756590    -0.58000
O336        O  0.89685116  0.50988557  0.67987132    -0.56400
O337        O  0.88116313  0.58251103  0.63647438    -0.56400
O338        O  0.85304904  0.52676203  0.64546168    -0.55600
O339        O  0.08336032  0.89670610  0.63890999    -0.56800
C340        C  0.07226227  0.94736315  0.69698787     0.75900
O341        O  0.11633948  0.94986382  0.65127829    -0.57900
C342        C  0.09674553  0.87981547  0.64876157     0.75800
C343        C  0.01123048  0.92250770  0.65130757     0.78200
Cd344      Cd  0.07037477  0.93121741  0.66120902     1.37500
O345        O  0.07088038  0.92123356  0.69277077    -0.56800
O346        O  0.02785051  0.93766116  0.64217602    -0.55600
C347        C  0.10797294  0.97504967  0.64830725     0.78200
O348        O  0.02139003  0.91308199  0.66531356    -0.58000
O349        O  0.07233574  0.96527077  0.68484387    -0.56400
O350        O  0.09834105  0.88667527  0.66460889    -0.56400
O351        O  0.08144018  0.98008824  0.65044232    -0.55600
O352        O  0.17613321  0.65010351  0.56227188    -0.56800
C353        C  0.13351163  0.62482659  0.60604383     0.75900
O354        O  0.23341978  0.64255966  0.60571991    -0.57900
C355        C  0.20250115  0.65197693  0.55834939     0.75800
C356        C  0.17629329  0.70978150  0.60533737     0.78200
Cd357      Cd  0.18510075  0.65221885  0.59397271     1.37500
O358        O  0.14070783  0.62355302  0.59024455    -0.56800
O359        O  0.16702744  0.70073078  0.59095405    -0.55600
C360        C  0.22877008  0.61609224  0.60749897     0.78200
O361        O  0.19144043  0.69277691  0.61414578    -0.58000
O362        O  0.14995955  0.63869939  0.61603529    -0.56400
O363        O  0.22009869  0.65448789  0.57070992    -0.56400
O364        O  0.20407561  0.60695748  0.60345405    -0.55600
O365        O  0.29476889  0.15281606  0.57004304    -0.56800
C366        C  0.33798297  0.12830258  0.61400450     0.75900
O367        O  0.28014474  0.19352948  0.62273814    -0.57900
C368        C  0.26848745  0.15496581  0.56590014     0.75800
C369        C  0.24286040  0.11522323  0.61567750     0.78200
Cd370      Cd  0.28531260  0.15334414  0.60190959     1.37500
O371        O  0.33049565  0.12593228  0.59829921    -0.56800
O372        O  0.26632305  0.10660388  0.60931837    -0.55600
C373        C  0.29293392  0.21152069  0.61330770     0.78200
O374        O  0.23872101  0.14195220  0.61591190    -0.58000
O375        O  0.32128029  0.14200275  0.62385198    -0.56400
O376        O  0.25068118  0.15653562  0.57819489    -0.56400
O377        O  0.30052989  0.20307219  0.59846076    -0.55600
O378        O  0.37669876  0.39225065  0.66628060    -0.56800
C379        C  0.40715534  0.45794477  0.69543339     0.75900
O380        O  0.43969112  0.44188071  0.63792964    -0.57900
C381        C  0.37236224  0.38619560  0.65050585     0.75800
C382        C  0.36358246  0.48160066  0.64662553     0.78200
Cd383      Cd  0.40127951  0.43872638  0.66005749     1.37500
O384        O  0.41321354  0.47395938  0.68282184    -0.56800
O385        O  0.35459713  0.45948788  0.65423212    -0.55600
C386        C  0.45798643  0.42840121  0.64680577     0.78200
O387        O  0.39053650  0.48443246  0.64519962    -0.58000
O388        O  0.39872764  0.43292164  0.69178249    -0.56400
O389        O  0.38132296  0.40407389  0.63955632    -0.56400
O390        O  0.45031287  0.42062466  0.66172958    -0.55600
O391        O  0.56194018  0.01918511  0.68963848    -0.56800
C392        C  0.59875993  0.10416857  0.65471114     0.75900
O393        O  0.58454337  0.00445965  0.65400581    -0.57900
C394        C  0.56750934  0.03572299  0.70214549     0.75800
C395        C  0.51618701  0.06075059  0.65418633     0.78200
Cd396      Cd  0.57342161  0.05192371  0.66655199     1.37500
O397        O  0.60257316  0.09626374  0.67022299    -0.56800
O398        O  0.52443543  0.06905129  0.66895269    -0.55600
C399        C  0.61140116  0.00868572  0.65353785     0.78200
O400        O  0.53407184  0.04684012  0.64516613    -0.58000
O401        O  0.58343909  0.08822183  0.64523213    -0.56400
O402        O  0.57577963  0.06074805  0.69841139    -0.56400
O403        O  0.62032853  0.03264304  0.65885980    -0.55600
O404        O  0.67582062  0.33094328  0.55931578    -0.56800
C405        C  0.63106317  0.35579453  0.60234707     0.75900
O406        O  0.68862777  0.28914154  0.61225233    -0.57900
C407        C  0.70135017  0.32390054  0.55558436     0.75800
C408        C  0.72627629  0.36770423  0.60330303     0.78200
Cd409      Cd  0.68309951  0.32861079  0.59109694     1.37500
O410        O  0.63691806  0.35389790  0.58638064    -0.56800
O411        O  0.70384569  0.37584162  0.59551056    -0.55600
C412        C  0.67209558  0.27208426  0.60429884     0.78200
O413        O  0.72887037  0.34112902  0.60583973    -0.58000
O414        O  0.64917603  0.34550553  0.61278111    -0.56400
O415        O  0.71784438  0.31823662  0.56811775    -0.56400
O416        O  0.66229046  0.28045922  0.58992613    -0.55600
C417        C  0.65578344  0.21084179  0.63000490     0.21400
C418        C  0.65448654  0.19396526  0.64501211    -0.38500
C419        C  0.63668202  0.16973033  0.64395808     0.20400
C420        C  0.62145289  0.16302297  0.62908367     0.23000
C421        C  0.62272729  0.17981895  0.61416756    -0.39000
C422        C  0.64045281  0.20390028  0.61521470     0.21800
N423        N  0.67011727  0.23555544  0.62781349    -0.32300
C424        C  0.66366253  0.24431059  0.61154232    -0.09800
C425        C  0.64533825  0.22504690  0.60329248    -0.28600
N426        N  0.60603380  0.13914564  0.63124984    -0.45200
C427        C  0.61136489  0.13037569  0.64760381    -0.04500
C428        C  0.63037454  0.14890686  0.65602695    -0.21900
H429        H  0.66621798  0.19943233  0.65666401     0.19900
H430        H  0.61055099  0.17464942  0.60262839     0.18700
H431        H  0.63594958  0.22685604  0.59052425     0.15000
H432        H  0.63858093  0.14724787  0.66909083     0.14900
H433        H  0.68260277  0.24628171  0.63698118     0.33000
H434        H  0.59272001  0.12931817  0.62209399     0.35800
C435        C  0.52016289  0.41030481  0.62227248     0.21400
C436        C  0.53617283  0.40420906  0.60732089    -0.38500
C437        C  0.56266829  0.39067963  0.61009975     0.20400
C438        C  0.57237903  0.38386485  0.62651348     0.23000
C439        C  0.55635291  0.38979096  0.64140696    -0.39000
C440        C  0.52991239  0.40317515  0.63862711     0.21800
N441        N  0.49368382  0.42167034  0.62312958    -0.32300
C442        C  0.48654701  0.42129439  0.64012793    -0.09800
C443        C  0.50862960  0.41011105  0.65017945    -0.28600
N444        N  0.59792722  0.37076379  0.62573918    -0.45200
C445        C  0.60459998  0.36913598  0.60872110    -0.04500
C446        C  0.58314553  0.38128609  0.59851470    -0.21900
H447        H  0.52838809  0.40920015  0.59448630     0.19900
H448        H  0.56370283  0.38393511  0.65420085     0.18700
H449        H  0.50859090  0.40642069  0.66399458     0.15000
H450        H  0.58254602  0.38285080  0.58455468     0.14900
H451        H  0.48077313  0.42794236  0.61277830     0.33000
H452        H  0.60999728  0.36318617  0.63615670     0.35800
C453        C  0.44558441  0.08718669  0.64719759     0.21400
C454        C  0.42035241  0.10187599  0.65143269    -0.38500
C455        C  0.40065384  0.10524130  0.63790182     0.20400
C456        C  0.40575926  0.09490997  0.62138130     0.23000
C457        C  0.43110294  0.08027558  0.61712915    -0.39000
C458        C  0.45077684  0.07673773  0.63071346     0.21800
N459        N  0.46788618  0.08190444  0.65767372    -0.32300
C460        C  0.48745696  0.06798690  0.64784426    -0.09800
C461        C  0.47760267  0.06424544  0.63093428    -0.28600
N462        N  0.38388318  0.10145300  0.61075906    -0.45200
C463        C  0.36482813  0.11607568  0.62061306    -0.04500
C464        C  0.37447157  0.11879495  0.63762284    -0.21900
H465        H  0.41646466  0.11026682  0.66428461     0.19900
H466        H  0.43527667  0.07243482  0.60418774     0.18700
H467        H  0.48889793  0.05460760  0.62016884     0.15000
H468        H  0.36394955  0.12962085  0.64826298     0.14900
H469        H  0.46996768  0.08801608  0.67062940     0.33000
H470        H  0.38217967  0.09661221  0.59760099     0.35800
C471        C  0.33435203  0.32009416  0.64510783     0.21400
C472        C  0.31951011  0.29517077  0.64995173    -0.38500
C473        C  0.31201599  0.27654475  0.63633847     0.20400
C474        C  0.31894954  0.28236168  0.61929412     0.23000
C475        C  0.33353413  0.30724029  0.61447760    -0.39000
C476        C  0.34086471  0.32580940  0.62800199     0.21800
N477        N  0.34475003  0.34084540  0.65551782    -0.32300
C478        C  0.35778029  0.35982855  0.64484282    -0.09800
C479        C  0.35570819  0.35116455  0.62763302    -0.28600
N480        N  0.31157460  0.26053131  0.60892476    -0.45200
C481        C  0.29987105  0.24050766  0.61934977    -0.04500
C482        C  0.29944656  0.24978483  0.63655230    -0.21900
H483        H  0.31474331  0.29033089  0.66332307     0.19900
H484        H  0.33934063  0.31152220  0.60118252     0.18700
H485        H  0.36428437  0.36183451  0.61636343     0.15000
H486        H  0.29261105  0.23785087  0.64778388     0.14900
H487        H  0.34318737  0.34198258  0.66895423     0.33000
H488        H  0.31550037  0.25881141  0.59565724     0.35800
C489        C  0.26982951  0.55749739  0.62261117     0.21400
C490        C  0.27433620  0.52949009  0.62809235    -0.38500
C491        C  0.30275438  0.52250271  0.63199929     0.20400
C492        C  0.32518108  0.54178787  0.63043630     0.23000
C493        C  0.32062602  0.57003786  0.62502851    -0.39000
C494        C  0.29198303  0.57714978  0.62123520     0.21800
N495        N  0.24471477  0.56911319  0.61804300    -0.32300
C496        C  0.25072588  0.59644408  0.61382006    -0.09800
C497        C  0.27996921  0.60242085  0.61565801    -0.28600
N498        N  0.35018462  0.52960632  0.63509242    -0.45200
C499        C  0.34325895  0.50259720  0.63981459    -0.04500
C500        C  0.31397735  0.49741518  0.63801844    -0.21900
H501        H  0.25693370  0.51426548  0.62929593     0.19900
H502        H  0.33799796  0.58530953  0.62391650     0.18700
H503        H  0.29093545  0.62231425  0.61299804     0.15000
H504        H  0.30241894  0.47793904  0.64090433     0.14900
H505        H  0.22467873  0.55901189  0.61775379     0.33000
H506        H  0.37044926  0.53916739  0.63540974     0.35800
C507        C  0.14771557  0.03818010  0.63793030     0.21400
C508        C  0.15299917  0.06750106  0.63564956    -0.38500
C509        C  0.18119992  0.07479626  0.63084608     0.20400
C510        C  0.20235235  0.05438036  0.62852216     0.23000
C511        C  0.19715306  0.02523342  0.63091928    -0.39000
C512        C  0.16909944  0.01798970  0.63569457     0.21800
N513        N  0.12279720  0.02553024  0.64236879    -0.32300
C514        C  0.12857466  0.99716768  0.64298685    -0.09800
C515        C  0.15720571  0.99170819  0.63894072    -0.28600
N516        N  0.22697247  0.06642300  0.62328713    -0.45200
C517        C  0.22161573  0.09474484  0.62220542    -0.04500
C518        C  0.19334605  0.10093111  0.62694609    -0.21900
H519        H  0.13635369  0.08338664  0.63729989     0.19900
H520        H  0.21369494  0.00931019  0.62902000     0.18700
H521        H  0.16793316  0.97123060  0.63857180     0.15000
H522        H  0.18288230  0.12154589  0.62695733     0.14900
H523        H  0.10324936  0.03555396  0.64506368     0.33000
H524        H  0.24611116  0.05591279  0.62025028     0.35800
C525        C  0.13490626  0.81526132  0.64012135     0.21400
C526        C  0.15324095  0.79212744  0.64344169    -0.38500
C527        C  0.15779881  0.77344506  0.62947324     0.20400
C528        C  0.14490214  0.77749701  0.61351365     0.23000
C529        C  0.12654017  0.80048095  0.61022825    -0.39000
C530        C  0.12217436  0.81920582  0.62410707     0.21800
N531        N  0.12722731  0.83618926  0.65112056    -0.32300
C532        C  0.10970286  0.85357451  0.64193564    -0.09800
C533        C  0.10596772  0.84363474  0.62507622    -0.28600
N534        N  0.15137651  0.75612030  0.60264720    -0.45200
C535        C  0.16835284  0.73815270  0.61173117    -0.04500
C536        C  0.17311252  0.74830340  0.62849200    -0.21900
H537        H  0.16303532  0.78881145  0.65598070     0.19900
H538        H  0.11626636  0.80346344  0.59779505     0.18700
H539        H  0.09323712  0.85311980  0.61488021     0.15000
H540        H  0.18476150  0.73789441  0.63881951     0.14900
H541        H  0.13374896  0.83869024  0.66397809     0.33000
H542        H  0.14358774  0.75323782  0.59007645     0.35800
C543        C  0.80617037  0.46169231  0.62297886     0.21400
C544        C  0.77927944  0.45745059  0.61525018    -0.38500
C545        C  0.77043881  0.42901983  0.61367586     0.20400
C546        C  0.78699882  0.40643294  0.61943404     0.23000
C547        C  0.81408704  0.41068414  0.62711572    -0.39000
C548        C  0.82308426  0.43924132  0.62857870     0.21800
N549        N  0.81870762  0.48679288  0.62655469    -0.32300
C550        C  0.84390117  0.48042522  0.63439124    -0.09800
C551        C  0.84760089  0.45096965  0.63580700    -0.28600
N552        N  0.77337642  0.38148228  0.61660617    -0.45200
C553        C  0.74809042  0.38842641  0.60895889    -0.04500
C554        C  0.74553576  0.41782668  0.60690836    -0.21900
H555        H  0.76606808  0.47504327  0.61093432     0.19900
H556        H  0.82705600  0.39312504  0.63172801     0.18700
H557        H  0.86515421  0.43977107  0.64196792     0.15000
H558        H  0.72779479  0.42944219  0.60124001     0.14900
H559        H  0.81035724  0.50707402  0.62414269     0.33000
H560        H  0.78080428  0.36108391  0.61962146     0.35800
C561        C  0.02248186  0.56982976  0.62543291     0.21400
C562        C  0.04072519  0.57252205  0.61107902    -0.38500
C563        C  0.06639637  0.58753480  0.61400185     0.20400
C564        C  0.07339611  0.59889343  0.63002634     0.23000
C565        C  0.05516594  0.59621099  0.64438403    -0.39000
C566        C  0.02943569  0.58130401  0.64143625     0.21800
N567        N  0.99605712  0.55819354  0.62571589    -0.32300
C568        C  0.98598464  0.56258885  0.64195449    -0.09800
C569        C  0.00628465  0.57671213  0.65218371    -0.28600
N570        N  0.09840873  0.61318239  0.62925745    -0.45200
C571        C  0.10731569  0.61105105  0.61260924    -0.04500
C572        C  0.08799486  0.59510676  0.60270480    -0.21900
H573        H  0.03500804  0.56418971  0.59845614     0.19900
H574        H  0.06028309  0.60569067  0.65680654     0.18700
H575        H  0.00388183  0.58384214  0.66543882     0.15000
H576        H  0.08926597  0.59027646  0.58902506     0.14900
H577        H  0.98505666  0.54904239  0.61531244     0.33000
H578        H  0.10849119  0.62423471  0.63934759     0.35800
C579        C  0.70334724  0.92902403  0.63068897     0.21400
C580        C  0.69961509  0.95778014  0.63517865    -0.38500
C581        C  0.67149602  0.96573330  0.63944665     0.20400
C582        C  0.64876096  0.94661318  0.63911572     0.23000
C583        C  0.65253110  0.91780696  0.63469003    -0.39000
C584        C  0.68072492  0.90977047  0.63058679     0.21800
N585        N  0.72783989  0.91625189  0.62580714    -0.32300
C586        C  0.72074228  0.88865146  0.62268021    -0.09800
C587        C  0.69162076  0.88372113  0.62559329    -0.28600
N588        N  0.62419631  0.95953834  0.64379216    -0.45200
C589        C  0.63151449  0.98697622  0.64725301    -0.04500
C590        C  0.66076554  0.99166631  0.64467585    -0.21900
H591        H  0.71728878  0.97283359  0.63535864     0.19900
H592        H  0.63485203  0.90276549  0.63448233     0.18700
H593        H  0.67988237  0.86397039  0.62377859     0.15000
H594        H  0.67260133  0.01135053  0.64654626     0.14900
H595        H  0.74801278  0.92577888  0.62445109     0.33000
H596        H  0.60387909  0.95019858  0.64486039     0.35800
C597        C  0.90015165  0.88654593  0.61962624     0.21400
C598        C  0.92389042  0.90398522  0.61588867    -0.38500
C599        C  0.94415106  0.90703006  0.62923784     0.20400
C600        C  0.94095701  0.89372318  0.64508413     0.23000
C601        C  0.91715281  0.87644740  0.64886063    -0.39000
C602        C  0.89694817  0.87339042  0.63551653     0.21800
N603        N  0.87834692  0.87955528  0.60897343    -0.32300
C604        C  0.86120866  0.86183068  0.61819589    -0.09800
C605        C  0.87204150  0.85756100  0.63480776    -0.28600
N606        N  0.96393470  0.89860668  0.65520045    -0.45200
C607        C  0.98193179  0.91510307  0.64573725    -0.04500
C608        C  0.97028235  0.92096072  0.62950440    -0.21900
H609        H  0.92668121  0.91395891  0.60339817     0.19900
H610        H  0.91483204  0.86570320  0.66115306     0.18700
H611        H  0.86295868  0.84452100  0.64496281     0.15000
H612        H  0.98020462  0.93263509  0.61903223     0.14900
H613        H  0.87532337  0.88636605  0.59627840     0.33000
H614        H  0.96763387  0.89032343  0.66753062     0.35800
C615        C  0.80579170  0.69611060  0.61487925     0.21400
C616        C  0.82154754  0.67189509  0.60998037    -0.38500
C617        C  0.82879306  0.65314092  0.62337963     0.20400
C618        C  0.82075389  0.65797684  0.64037146     0.23000
C619        C  0.80487666  0.68220213  0.64527134    -0.39000
C620        C  0.79777213  0.70110916  0.63186455     0.21800
N621        N  0.79919308  0.71854390  0.60489440    -0.32300
C622        C  0.78719094  0.73818337  0.61556461    -0.09800
C623        C  0.78551481  0.72794130  0.63247122    -0.28600
N624        N  0.83198902  0.63793943  0.65082725    -0.45200
C625        C  0.84757647  0.62047122  0.64042184    -0.04500
C626        C  0.84586773  0.62913851  0.62320064    -0.21900
H627        H  0.82874332  0.66856075  0.59681666     0.19900
H628        H  0.79953151  0.68662423  0.65863486     0.18700
H629        H  0.77859378  0.73948281  0.64388105     0.15000
H630        H  0.85647922  0.61968947  0.61212359     0.14900
H631        H  0.80438566  0.72113217  0.59184865     0.33000
H632        H  0.83000113  0.63678200  0.66423124     0.35800
C633        C  0.65878003  0.26209987  0.13338014     0.21400
C634        C  0.65372371  0.27842136  0.14843487    -0.38500
C635        C  0.63980577  0.30477127  0.14590470     0.20400
C636        C  0.63175822  0.31398638  0.12961255     0.23000
C637        C  0.63700220  0.29787908  0.11464881    -0.39000
C638        C  0.65068830  0.27164821  0.11717081     0.21800
N639        N  0.66926659  0.23533321  0.13232422    -0.32300
C640        C  0.66745030  0.22784837  0.11535312    -0.09800
C641        C  0.65628063  0.25009302  0.10552857    -0.28600
N642        N  0.61775741  0.33893037  0.13056293    -0.45200
C643        C  0.61674300  0.34595805  0.14755726    -0.04500
C644        C  0.63039675  0.32521576  0.15760850    -0.21900
H645        H  0.65936908  0.27078701  0.16118960     0.19900
H646        H  0.63003074  0.30485718  0.10198998     0.18700
H647        H  0.65129771  0.24988188  0.09184688     0.15000
H648        H  0.63270334  0.32491610  0.17153991     0.14900
H649        H  0.67572630  0.22242357  0.14259697     0.33000
H650        H  0.60913761  0.35041088  0.12022435     0.35800
C651        C  0.56121792  0.07251411  0.11083460     0.21400
C652        C  0.53533570  0.05843998  0.10668011    -0.38500
C653        C  0.51756168  0.05158830  0.12080812     0.20400
C654        C  0.52511784  0.05828047  0.13768525     0.23000
C655        C  0.55091313  0.07204375  0.14180527    -0.39000
C656        C  0.56849748  0.07889742  0.12778488     0.21800
N657        N  0.58108916  0.08306995  0.09987035    -0.32300
C658        C  0.60080908  0.09636927  0.11008240    -0.09800
C659        C  0.59373633  0.09395731  0.12749297    -0.28600
N660        N  0.50374308  0.05201114  0.14864273    -0.45200
C661        C  0.48224692  0.04126550  0.13877204    -0.04500
C662        C  0.49009771  0.04033402  0.12133510    -0.21900
H663        H  0.52904344  0.05406738  0.09344754     0.19900
H664        H  0.55641105  0.07796639  0.15495030     0.18700
H665        H  0.60518581  0.10278230  0.13848388     0.15000
H666        H  0.47680329  0.03415430  0.11044341     0.14900
H667        H  0.58087341  0.08196111  0.08639202     0.33000
H668        H  0.50326577  0.05615073  0.16193119     0.35800
C669        C  0.34636117  0.14482353  0.12378855     0.21400
C670        C  0.34347904  0.16289911  0.10949058    -0.38500
C671        C  0.32965270  0.18890242  0.11271364     0.20400
C672        C  0.31920375  0.19627145  0.12889203     0.23000
C673        C  0.32199869  0.17811837  0.14319228    -0.39000
C674        C  0.33606742  0.15216979  0.14000378     0.21800
N675        N  0.35979035  0.11950886  0.12427007    -0.32300
C676        C  0.35809465  0.11068677  0.14091597    -0.09800
C677        C  0.34341708  0.13043756  0.15112517    -0.28600
N678        N  0.30835097  0.22283857  0.12873897    -0.45200
C679        C  0.31227600  0.23242718  0.11238803    -0.04500
C680        C  0.32531795  0.21185411  0.10201170    -0.21900
H681        H  0.35206907  0.15746195  0.09689708     0.19900
H682        H  0.31444972  0.18406130  0.15594213     0.18700
H683        H  0.33909844  0.12923673  0.16485543     0.15000
H684        H  0.33169889  0.21383949  0.08860969     0.14900
H685        H  0.36982374  0.10905882  0.11396290     0.33000
H686        H  0.29991432  0.23413296  0.13923229     0.35800
C687        C  0.40915823  0.38888177  0.11798987     0.21400
C688        C  0.43365626  0.40563966  0.11489298    -0.38500
C689        C  0.45203987  0.40965764  0.12912839     0.20400
C690        C  0.44640499  0.39788957  0.14518522     0.23000
C691        C  0.42196765  0.38122662  0.14827378    -0.39000
C692        C  0.40367076  0.37723306  0.13408785     0.21800
N693        N  0.38897997  0.38069421  0.10647829    -0.32300
C694        C  0.37070399  0.36369482  0.11542833    -0.09800
C695        C  0.37911936  0.36116328  0.13264636    -0.28600
N696        N  0.46835283  0.40253649  0.15611623    -0.45200
C697        C  0.48830339  0.41704275  0.14691352    -0.04500
C698        C  0.47876380  0.42228673  0.13010982    -0.21900
H699        H  0.43852603  0.41413404  0.10223006     0.19900
H700        H  0.41795837  0.37133104  0.16067155     0.18700
H701        H  0.36894369  0.34867927  0.14268358     0.15000
H702        H  0.49067632  0.43205411  0.11966834     0.14900
H703        H  0.38799061  0.38587792  0.09338550     0.33000
H704        H  0.47042569  0.39467516  0.16868276     0.35800
C705        C  0.26240005  0.91106709  0.12128831     0.21400
C706        C  0.26842259  0.94017506  0.12334898    -0.38500
C707        C  0.29562975  0.94671633  0.13000877     0.20400
C708        C  0.31555544  0.92589840  0.13413611     0.23000
C709        C  0.30940908  0.89664941  0.13222282    -0.39000
C710        C  0.28196295  0.89006272  0.12569757     0.21800
N711        N  0.23803438  0.89949654  0.11517654    -0.32300
C712        C  0.24184328  0.87088013  0.11582573    -0.09800
C713        C  0.26898211  0.86406834  0.12233208    -0.28600
N714        N  0.33997427  0.93789206  0.14006736    -0.45200
C715        C  0.33528358  0.96646340  0.13983579    -0.04500
C716        C  0.30787093  0.97275022  0.13371501    -0.21900
H717        H  0.25299953  0.95654911  0.12004110     0.19900
H718        H  0.32479764  0.88027552  0.13558401     0.18700
H719        H  0.27803886  0.84303338  0.12417322     0.15000
H720        H  0.29823408  0.99359823  0.13216404     0.14900
H721        H  0.21983668  0.91042309  0.11087476     0.33000
H722        H  0.35848133  0.92733748  0.14424666     0.35800
C723        C  0.75972666  0.04087845  0.12180891     0.21400
C724        C  0.76493428  0.01161288  0.12376194    -0.38500
C725        C  0.79271783  0.00433506  0.12913226     0.20400
C726        C  0.81380929  0.02464065  0.13216257     0.23000
C727        C  0.80854559  0.05397934  0.13026760    -0.39000
C728        C  0.78064653  0.06129199  0.12500099     0.21800
N729        N  0.73526599  0.05314267  0.11649584    -0.32300
C730        C  0.74060027  0.08156572  0.11621922    -0.09800
C731        C  0.76861563  0.08757884  0.12156531    -0.28600
N732        N  0.83823775  0.01218703  0.13751673    -0.45200
C733        C  0.83245844  0.98383850  0.13813608    -0.04500
C734        C  0.80434134  0.97809380  0.13292514    -0.21900
H735        H  0.74850709  0.99569196  0.12135619     0.19900
H736        H  0.82492662  0.06991303  0.13274438     0.18700
H737        H  0.77900534  0.10823544  0.12229559     0.15000
H738        H  0.79364501  0.95757140  0.13242585     0.14900
H739        H  0.71630078  0.04274509  0.11285559     0.33000
H740        H  0.85730302  0.02240295  0.14114314     0.35800
C741        C  0.02183848  0.89390181  0.14081926     0.21400
C742        C  0.04716676  0.87951466  0.14520930    -0.38500
C743        C  0.06547309  0.87288656  0.13141800     0.20400
C744        C  0.05925829  0.88018996  0.11448846     0.23000
C745        C  0.03388144  0.89476944  0.11008128    -0.39000
C746        C  0.01536376  0.90124242  0.12392155     0.21800
N747        N  0.99984225  0.90003313  0.15139387    -0.32300
C748        C  0.97896494  0.91109340  0.14122073    -0.09800
C749        C  0.98793497  0.91254366  0.12400181    -0.28600
N750        N  0.07962804  0.87010538  0.10370609    -0.45200
C751        C  0.09873713  0.85620119  0.11392322    -0.04500
C752        C  0.09064591  0.85759291  0.13125322    -0.21900
H753        H  0.05178152  0.87301204  0.15834346     0.19900
H754        H  0.02846747  0.89976690  0.09681492     0.18700
H755        H  0.97538334  0.91908968  0.11291092     0.15000
H756        H  0.10146572  0.84815978  0.14223433     0.14900
H757        H  0.99847859  0.89539956  0.16457843     0.33000
H758        H  0.08021012  0.87206135  0.09026629     0.35800
C759        C  0.20963608  0.40912561  0.12805577     0.21400
C760        C  0.20470160  0.43692876  0.13389815    -0.38500
C761        C  0.17588936  0.44433260  0.13604370     0.20400
C762        C  0.15355960  0.42561534  0.13248706     0.23000
C763        C  0.15852200  0.39761083  0.12667954    -0.39000
C764        C  0.18751167  0.39005179  0.12470251     0.21800
N765        N  0.23512739  0.39749999  0.12436996    -0.32300
C766        C  0.22933246  0.37081483  0.11864547    -0.09800
C767        C  0.19990673  0.36511012  0.11882588    -0.28600
N768        N  0.12811874  0.43793764  0.13589923    -0.45200
C769        C  0.13458169  0.46444497  0.14185077    -0.04500
C770        C  0.16407810  0.46924508  0.14203427    -0.21900
H771        H  0.22205687  0.45172603  0.13656949     0.19900
H772        H  0.14116762  0.38286552  0.12391252     0.18700
H773        H  0.18905280  0.34598072  0.11438711     0.15000
H774        H  0.17537079  0.48819604  0.14636141     0.14900
H775        H  0.25521615  0.40742095  0.12518897     0.33000
H776        H  0.10777263  0.42866858  0.13474925     0.35800
C777        C  0.13927080  0.68446734  0.11575412     0.21400
C778        C  0.12281097  0.66014448  0.11189514    -0.38500
C779        C  0.11953163  0.64060638  0.12543966     0.20400
C780        C  0.13176232  0.64495003  0.14157798     0.23000
C781        C  0.14846909  0.66915922  0.14537812    -0.39000
C782        C  0.15167913  0.68877219  0.13184815     0.21800
N783        N  0.14390195  0.70702867  0.10548597    -0.32300
C784        C  0.15922629  0.72592256  0.11510402    -0.09800
C785        C  0.16474853  0.71522735  0.13159017    -0.28600
N786        N  0.12469460  0.62367281  0.15238918    -0.45200
C787        C  0.10796878  0.60560963  0.14304031    -0.04500
C788        C  0.10428771  0.61541017  0.12615840    -0.21900
H789        H  0.11274594  0.65700133  0.09939666     0.19900
H790        H  0.15768830  0.67279070  0.15805956     0.18700
H791        H  0.17562916  0.72590019  0.14218170     0.15000
H792        H  0.09198247  0.60551770  0.11585449     0.14900
H793        H  0.13616910  0.70986469  0.09291610     0.33000
H794        H  0.13090875  0.62152272  0.16529896     0.35800
C795        C  0.70669906  0.53834289  0.11759934     0.21400
C796        C  0.70176739  0.51079166  0.12378526    -0.38500
C797        C  0.67395970  0.50537152  0.12969571     0.20400
C798        C  0.65236920  0.52565819  0.12931559     0.23000
C799        C  0.65734861  0.55347930  0.12316383    -0.39000
C800        C  0.68549779  0.55906641  0.11742609     0.21800
N801        N  0.73177281  0.54888543  0.11202327    -0.32300
C802        C  0.72687671  0.57670463  0.10852643    -0.09800
C803        C  0.69820047  0.58394485  0.11160506    -0.28600
N804        N  0.62784806  0.51485611  0.13587071    -0.45200
C805        C  0.63426134  0.48766723  0.14050786    -0.04500
C806        C  0.66275521  0.48109905  0.13688362    -0.21900
H807        H  0.71855513  0.49484380  0.12424825     0.19900
H808        H  0.64076552  0.56965450  0.12314361     0.18700
H809        H  0.68823184  0.60465443  0.11014822     0.15000
H810        H  0.67381667  0.46117732  0.13923603     0.14900
H811        H  0.75132414  0.53801515  0.11119586     0.33000
H812        H  0.60819467  0.52533941  0.13728662     0.35800
C813        C  0.90295657  0.57461800  0.12828942     0.21400
C814        C  0.91913552  0.57110356  0.14337829    -0.38500
C815        C  0.94423974  0.55511297  0.14155569     0.20400
C816        C  0.95273889  0.54357200  0.12586402     0.23000
C817        C  0.93655262  0.54722810  0.11066611    -0.39000
C818        C  0.91122744  0.56321337  0.11251114     0.21800
N819        N  0.87867331  0.58958508  0.12669410    -0.32300
C820        C  0.87127036  0.58792015  0.10979846    -0.09800
C821        C  0.89098832  0.57157400  0.10044323    -0.28600
N822        N  0.97851637  0.53095297  0.12741588    -0.45200
C823        C  0.98638915  0.53480791  0.14416387    -0.04500
C824        C  0.96546747  0.54954055  0.15340797    -0.21900
H825        H  0.91290220  0.58063776  0.15558500     0.19900
H826        H  0.94344586  0.53876697  0.09830489     0.18700
H827        H  0.89076882  0.56684083  0.08672783     0.15000
H828        H  0.96651611  0.55683774  0.16670067     0.14900
H829        H  0.86797347  0.60067520  0.13651128     0.33000
H830        H  0.99069833  0.52184226  0.11752509     0.35800
C831        C  0.84785749  0.80409807  0.12597696     0.21400
C832        C  0.84807849  0.78569651  0.11168031    -0.38500
C833        C  0.83282306  0.76021158  0.11366607     0.20400
C834        C  0.81838103  0.75344475  0.12875167     0.23000
C835        C  0.81818258  0.77194062  0.14314513    -0.39000
C836        C  0.83353493  0.79760642  0.14115393     0.21800
N837        N  0.86120217  0.82934008  0.12728156    -0.32300
C838        C  0.85554876  0.83921941  0.14339460    -0.09800
C839        C  0.83825628  0.82006506  0.15251455    -0.28600
N840        N  0.80624076  0.72742586  0.12742179    -0.45200
C841        C  0.81321629  0.71773549  0.11140218    -0.04500
C842        C  0.82967377  0.73761823  0.10245047    -0.21900
H843        H  0.85957524  0.79074497  0.09991461     0.19900
H844        H  0.80717600  0.76662604  0.15503148     0.18700
H845        H  0.83043526  0.82217461  0.16563507     0.15000
H846        H  0.83873811  0.73550152  0.08961919     0.14900
H847        H  0.87365632  0.83919267  0.11777194     0.33000
H848        H  0.79461268  0.71668027  0.13691241     0.35800
C849        C  0.75458176  0.31540239  0.48562247     0.21400
C850        C  0.76247545  0.31471354  0.50313614    -0.38500
C851        C  0.73996020  0.31830716  0.51498872     0.20400
C852        C  0.71179209  0.32253005  0.50979782     0.23000
C853        C  0.70389191  0.32309865  0.49228183    -0.39000
C854        C  0.72635880  0.31924443  0.48043117     0.21800
N855        N  0.77197356  0.31285182  0.47184531    -0.32300
C856        C  0.75465142  0.31497333  0.45780700    -0.09800
C857        C  0.72604767  0.31882757  0.46261993    -0.28600
N858        N  0.69441715  0.32532704  0.52357686    -0.45200
C859        C  0.71162241  0.32254196  0.53762498    -0.04500
C860        C  0.74017302  0.31824484  0.53279975    -0.21900
H861        H  0.78449497  0.31155725  0.50722997     0.19900
H862        H  0.68187685  0.32625411  0.48818355     0.18700
H863        H  0.70762551  0.32148753  0.45421646     0.15000
H864        H  0.75856381  0.31537630  0.54120208     0.14900
H865        H  0.79422591  0.31002447  0.47197245     0.33000
H866        H  0.67222372  0.32859506  0.52343907     0.35800
C867        C  0.90344851  0.95205989  0.24073535     0.21400
C868        C  0.90869442  0.94542926  0.25816186    -0.38500
C869        C  0.90746109  0.96851465  0.26978570     0.20400
C870        C  0.90140119  0.99604358  0.26445271     0.23000
C871        C  0.89637386  0.00269501  0.24705025    -0.39000
C872        C  0.89764218  0.97966430  0.23545331     0.21800
N873        N  0.90287823  0.93395693  0.22716723    -0.32300
C874        C  0.89671260  0.95026973  0.21319346    -0.09800
C875        C  0.89338717  0.97884875  0.21785568    -0.28600
N876        N  0.90043730  0.01399396  0.27803139    -0.45200
C877        C  0.90599166  0.99781341  0.29212161    -0.04500
C878        C  0.91062536  0.96935720  0.28751562    -0.21900
H879        H  0.91308927  0.92387270  0.26238403     0.19900
H880        H  0.89150235  0.02417431  0.24286878     0.18700
H881        H  0.88840055  0.99662945  0.20947692     0.15000
H882        H  0.91496322  0.95159342  0.29603570     0.14900
H883        H  0.90648875  0.91197651  0.22738674     0.33000
H884        H  0.89587186  0.03579919  0.27776359     0.35800
C885        C  0.84746232  0.14324814  0.37554659     0.21400
C886        C  0.84155894  0.16032913  0.39000845    -0.38500
C887        C  0.82741728  0.18601960  0.38661092     0.20400
C888        C  0.81962062  0.19411137  0.37005516     0.23000
C889        C  0.82567546  0.17701064  0.35550692    -0.39000
C890        C  0.83998807  0.15122410  0.35891104     0.21800
N891        N  0.86115785  0.11813997  0.37546654    -0.32300
C892        C  0.86273735  0.10994402  0.35869001    -0.09800
C893        C  0.84969626  0.12998242  0.34788593    -0.28600
N894        N  0.80699769  0.21992338  0.37032598    -0.45200
C895        C  0.80692319  0.22822544  0.38716213    -0.04500
C896        C  0.81950027  0.20765029  0.39768941    -0.21900
H897        H  0.84782841  0.15418217  0.40295777     0.19900
H898        H  0.81996682  0.18344864  0.34251971     0.18700
H899        H  0.84771855  0.12918145  0.33393977     0.15000
H900        H  0.82307212  0.20872782  0.41151836     0.14900
H901        H  0.86924465  0.10732131  0.38621818     0.33000
H902        H  0.79966070  0.23151261  0.35970137     0.35800
C903        C  0.06658623  0.45456718  0.26780981     0.21400
C904        C  0.06619787  0.44662151  0.25030293    -0.38500
C905        C  0.06742202  0.46916452  0.23843880     0.20400
C906        C  0.06869968  0.49748519  0.24359048     0.23000
C907        C  0.06888682  0.50544252  0.26110721    -0.39000
C908        C  0.06788988  0.48288115  0.27297219     0.21800
N909        N  0.06687756  0.43713896  0.28158732    -0.32300
C910        C  0.06854835  0.45453509  0.29559229    -0.09800
C911        C  0.06903051  0.48318475  0.29075839    -0.28600
N912        N  0.07029564  0.51479001  0.22978636    -0.45200
C913        C  0.07005792  0.49732655  0.21576940    -0.04500
C914        C  0.06827054  0.46874365  0.22064656    -0.21900
H915        H  0.06551699  0.42450756  0.24621864     0.19900
H916        H  0.07023262  0.52752855  0.26519767     0.18700
H917        H  0.07056581  0.50170131  0.29913186     0.15000
H918        H  0.06783810  0.45016064  0.21228600     0.14900
H919        H  0.06641589  0.41488183  0.28146835     0.33000
H920        H  0.07161555  0.53707543  0.22989019     0.35800
C921        C  0.89674700  0.37513456  0.37528427     0.21400
C922        C  0.91334661  0.38267757  0.36093988    -0.38500
C923        C  0.93898731  0.39700482  0.36464595     0.20400
C924        C  0.94746394  0.40348015  0.38138732     0.23000
C925        C  0.93076464  0.39591592  0.39580939    -0.39000
C926        C  0.90501566  0.38145055  0.39208593     0.21800
N927        N  0.87198782  0.36059042  0.37507506    -0.32300
C928        C  0.86420095  0.35759452  0.39182157    -0.09800
C929        C  0.88423903  0.37030107  0.40290840    -0.28600
N930        N  0.97393054  0.41500983  0.38145032    -0.45200
C931        C  0.98236942  0.41535581  0.36466715    -0.04500
C932        C  0.96102453  0.40464058  0.35379874    -0.21900
H933        H  0.90713854  0.37703163  0.34786486     0.19900
H934        H  0.93767087  0.40027751  0.40893277     0.18700
H935        H  0.88377278  0.37107192  0.41690090     0.15000
H936        H  0.96229012  0.40100794  0.33998113     0.14900
H937        H  0.86105741  0.35304774  0.36415339     0.33000
H938        H  0.98623471  0.42038670  0.39227672     0.35800
C939        C  0.23806675  0.15388007  0.49082270     0.21400
C940        C  0.26253370  0.15477737  0.50145920    -0.38500
C941        C  0.25726413  0.15523844  0.51930976     0.20400
C942        C  0.22967429  0.15502436  0.52598696     0.23000
C943        C  0.20518718  0.15397568  0.51534433    -0.39000
C944        C  0.21046997  0.15328056  0.49748727     0.21800
N945        N  0.23744045  0.15275698  0.47349107    -0.32300
C946        C  0.20931957  0.15111856  0.46903015    -0.09800
C947        C  0.19173120  0.15140624  0.48364129    -0.28600
N948        N  0.23039420  0.15525782  0.54334064    -0.45200
C949        C  0.25858505  0.15542132  0.54780158    -0.04500
C950        C  0.27608609  0.15544473  0.53315058    -0.21900
H951        H  0.28408672  0.15482321  0.49620806     0.19900
H952        H  0.18364098  0.15342334  0.52059682     0.18700
H953        H  0.16850823  0.15020032  0.48407233     0.15000
H954        H  0.29933528  0.15536543  0.53268896     0.14900
H955        H  0.25513495  0.15256993  0.46518145     0.33000
H956        H  0.21273379  0.15492139  0.55167645     0.35800
C957        C  0.02451003  0.05420678  0.38254315     0.21400
C958        C  0.04099881  0.05935113  0.39750392    -0.38500
C959        C  0.06782834  0.07242779  0.39482819     0.20400
C960        C  0.07745750  0.07967861  0.37848250     0.23000
C961        C  0.06105186  0.07449596  0.36356225    -0.39000
C962        C  0.03423270  0.06159323  0.36624266     0.21800
N963        N  0.99753564  0.04384572  0.38167016    -0.32300
C964        C  0.98999021  0.04491936  0.36472148    -0.09800
C965        C  0.01239786  0.05572168  0.35470895    -0.28600
N966        N  0.10272951  0.09345815  0.37942133    -0.45200
C967        C  0.10924839  0.09524018  0.39647867    -0.04500
C968        C  0.08812660  0.08214448  0.40652618    -0.21900
H969        H  0.03313958  0.05436917  0.41031515     0.19900
H970        H  0.06824897  0.08090787  0.35084486     0.18700
H971        H  0.01227147  0.05985466  0.34094235     0.15000
H972        H  0.08718304  0.08095055  0.42049359     0.14900
H973        H  0.98460917  0.03761888  0.39204088     0.33000
H974        H  0.11435483  0.10202293  0.36911248     0.35800
C975        C  0.13329339  0.30827141  0.36938859     0.21400
C976        C  0.15154736  0.28493897  0.36620191    -0.38500
C977        C  0.15377027  0.26492383  0.37964360     0.20400
C978        C  0.13889886  0.26796456  0.39503976     0.23000
C979        C  0.12081151  0.29130462  0.39825765    -0.39000
C980        C  0.11860643  0.31125160  0.38484872     0.21800
N981        N  0.12702309  0.32994732  0.35861657    -0.32300
C982        C  0.10822473  0.34678566  0.36734415    -0.09800
C983        C  0.10252617  0.33580733  0.38373498    -0.28600
N984        N  0.14353992  0.24550779  0.40541605    -0.45200
C985        C  0.16150205  0.22795603  0.39661317    -0.04500
C986        C  0.16853408  0.23939874  0.38051126    -0.21900
H987        H  0.16284912  0.28234167  0.35407300     0.19900
H988        H  0.10897394  0.29354856  0.41023016     0.18700
H989        H  0.08840149  0.34459187  0.39350787     0.15000
H990        H  0.18175000  0.22983249  0.37055140     0.14900
H991        H  0.13497093  0.33307214  0.34616227     0.33000
H992        H  0.13445842  0.24198618  0.41757306     0.35800
C993        C  0.40577674  0.98524800  0.26917519     0.21400
C994        C  0.40734874  0.00935685  0.25847508    -0.38500
C995        C  0.40446249  0.00407166  0.24068660     0.20400
C996        C  0.40055135  0.97679882  0.23412867     0.23000
C997        C  0.39904719  0.95270046  0.24481187    -0.39000
C998        C  0.40172955  0.95800789  0.26259083     0.21800
N999        N  0.40689655  0.98470444  0.28651776    -0.32300
C1000       C  0.40343585  0.95697950  0.29102068    -0.09800
C1001       C  0.40022372  0.93961653  0.27645199    -0.28600
N1002       N  0.39793888  0.97742942  0.21685878    -0.45200
C1003       C  0.40005288  0.00527333  0.21233861    -0.04500
C1004       C  0.40417177  0.02262542  0.22684213    -0.21900
H1005       H  0.41017806  0.03068237  0.26364517     0.19900
H1006       H  0.39562570  0.93144236  0.23966741     0.18700
H1007       H  0.39671409  0.91677787  0.27607557     0.15000
H1008       H  0.40652120  0.04560747  0.22720801     0.14900
H1009       H  0.40937306  0.00221508  0.29481606     0.33000
H1010       H  0.39468158  0.95997741  0.20864274     0.35800
C1011       C  0.27080802  0.04758455  0.38836277     0.21400
C1012       C  0.27560652  0.01911811  0.38374543    -0.38500
C1013       C  0.30289911  0.01305294  0.37723080     0.20400
C1014       C  0.32407671  0.03364779  0.37555440     0.23000
C1015       C  0.31918064  0.06236385  0.38005519    -0.39000
C1016       C  0.29159155  0.06853651  0.38647712     0.21800
N1017       N  0.24640080  0.05860924  0.39461570    -0.32300
C1018       C  0.25131773  0.08690257  0.39658492    -0.09800
C1019       C  0.27931760  0.09403334  0.39168395    -0.28600
N1020       N  0.34828090  0.02203738  0.36911478    -0.45200
C1021       C  0.34208067  0.99400163  0.36662343    -0.04500
C1022       C  0.31402975  0.98768069  0.37146557    -0.21900
H1023       H  0.25918576  0.00287508  0.38504129     0.19900
H1024       H  0.33550890  0.07864981  0.37858122     0.18700
H1025       H  0.28922015  0.11495104  0.39181380     0.15000
H1026       H  0.30325690  0.96720024  0.37087814     0.14900
H1027       H  0.22732840  0.04758911  0.39711415     0.33000
H1028       H  0.36756411  0.03248605  0.36641141     0.35800
C1029       C  0.25660486  0.64966860  0.48869197     0.21400
C1030       C  0.26433265  0.65005887  0.50620054    -0.38500
C1031       C  0.24141458  0.65009648  0.51791863     0.20400
C1032       C  0.21295575  0.64948979  0.51264296     0.23000
C1033       C  0.20521932  0.64908036  0.49510472    -0.39000
C1034       C  0.22816296  0.64936724  0.48336759     0.21800
N1035       N  0.27437413  0.64988644  0.47503728    -0.32300
C1036       C  0.25708502  0.64992365  0.46094628    -0.09800
C1037       C  0.22814353  0.64964044  0.46557651    -0.28600
N1038       N  0.19525061  0.64995644  0.52636634    -0.45200
C1039       C  0.21266672  0.65106194  0.54041291    -0.04500
C1040       C  0.24155082  0.65112670  0.53567300    -0.21900
H1041       H  0.28653734  0.65058016  0.51038815     0.19900
H1042       H  0.18301574  0.64885977  0.49091094     0.18700
H1043       H  0.20964476  0.64945974  0.45706884     0.15000
H1044       H  0.26013529  0.65193736  0.54410210     0.14900
H1045       H  0.29681501  0.65010815  0.47527845     0.33000
H1046       H  0.17281574  0.64978532  0.52619325     0.35800
C1047       C  0.20215563  0.54837725  0.38401667     0.21400
C1048       C  0.19622911  0.51919473  0.38256297    -0.38500
C1049       C  0.16789770  0.51216644  0.37828150     0.20400
C1050       C  0.14685424  0.53257425  0.37569745     0.23000
C1051       C  0.15277867  0.56194250  0.37722057    -0.39000
C1052       C  0.18132948  0.56902722  0.38146882     0.21800
N1053       N  0.22745752  0.56031350  0.38811402    -0.32300
C1054       C  0.22289338  0.58882849  0.38829100    -0.09800
C1055       C  0.19438339  0.59520845  0.38414187    -0.28600
N1056       N  0.12193087  0.52011679  0.37096606    -0.45200
C1057       C  0.12750039  0.49169194  0.37042058    -0.04500
C1058       C  0.15581682  0.48597138  0.37501166    -0.21900
H1059       H  0.21260194  0.50311051  0.38444153     0.19900
H1060       H  0.13649804  0.57803408  0.37510575     0.18700
H1061       H  0.18441526  0.61604631  0.38365848     0.15000
H1062       H  0.16645131  0.46544297  0.37523394     0.14900
H1063       H  0.24654502  0.54963944  0.39103846     0.33000
H1064       H  0.10280395  0.53031122  0.36760873     0.35800
C1065       C  0.31323047  0.76952842  0.37492307     0.21400
C1066       C  0.31616046  0.78737378  0.36047238    -0.38500
C1067       C  0.33284866  0.81200755  0.36304882     0.20400
C1068       C  0.34560503  0.81823757  0.37881526     0.23000
C1069       C  0.34255558  0.80053532  0.39325580    -0.39000
C1070       C  0.32590753  0.77598304  0.39068102     0.21800
N1071       N  0.30016195  0.74394959  0.37554449    -0.32300
C1072       C  0.30477140  0.73408654  0.39177316    -0.09800
C1073       C  0.32051163  0.75356603  0.40163400    -0.28600
N1074       N  0.36105682  0.84233037  0.37784661    -0.45200
C1075       C  0.35807795  0.85167131  0.36138729    -0.04500
C1076       C  0.34060154  0.83337391  0.35171417    -0.21900
H1077       H  0.30668028  0.78215514  0.34806249     0.19900
H1078       H  0.35294248  0.80520777  0.40548483     0.18700
H1079       H  0.32826646  0.75098133  0.41474421     0.15000
H1080       H  0.33463003  0.83530682  0.33823398     0.14900
H1081       H  0.28992683  0.73331683  0.36536860     0.33000
H1082       H  0.37296263  0.85184206  0.38779243     0.35800
C1083       C  0.56341552  0.48107861  0.27302525     0.21400
C1084       C  0.56057111  0.45655514  0.26269091    -0.38500
C1085       C  0.56640051  0.46024348  0.24506398     0.20400
C1086       C  0.57419746  0.48643905  0.23827297     0.23000
C1087       C  0.57687902  0.51099789  0.24858469    -0.39000
C1088       C  0.57125589  0.50726341  0.26622931     0.21800
N1089       N  0.56074979  0.48278658  0.29027012    -0.32300
C1090       C  0.56707545  0.51017881  0.29449043    -0.09800
C1091       C  0.57352665  0.52620816  0.27984527    -0.28600
N1092       N  0.57891716  0.48427736  0.22121169    -0.45200
C1093       C  0.57417928  0.45652467  0.21710899    -0.04500
C1094       C  0.56633678  0.44079654  0.23163149    -0.21900
H1095       H  0.55481470  0.43601324  0.26804182     0.19900
H1096       H  0.58340008  0.53136846  0.24330797     0.18700
H1097       H  0.58010867  0.54835779  0.27931808     0.15000
H1098       H  0.56107813  0.41831004  0.23223973     0.14900
H1099       H  0.55583710  0.46611329  0.29871518     0.33000
H1100       H  0.58494466  0.50069589  0.21285049     0.35800
C1101       C  0.64993541  0.43138177  0.37036924     0.21400
C1102       C  0.65299528  0.40296842  0.37578817    -0.38500
C1103       C  0.68133678  0.39282833  0.37666385     0.20400
C1104       C  0.70469247  0.40984626  0.37253383     0.23000
C1105       C  0.70160839  0.43801623  0.36686187    -0.39000
C1106       C  0.67337306  0.44805537  0.36592739     0.21800
N1107       N  0.62544660  0.44633651  0.36886385    -0.32300
C1108       C  0.63349150  0.47253433  0.36328165    -0.09800
C1109       C  0.66316206  0.47441075  0.36125260    -0.28600
N1110       N  0.72938910  0.39618288  0.37572446    -0.45200
C1111       C  0.72186016  0.37021508  0.38186918    -0.04500
C1112       C  0.69204038  0.36710737  0.38247806    -0.21900
H1113       H  0.63474386  0.38995858  0.37941216     0.19900
H1114       H  0.71990858  0.45134480  0.36377434     0.18700
H1115       H  0.67554918  0.49259333  0.35690141     0.15000
H1116       H  0.67993093  0.34923131  0.38750427     0.14900
H1117       H  0.60458069  0.43908431  0.37121620     0.33000
H1118       H  0.75014922  0.40442641  0.37442001     0.35800
C1119       C  0.45254134  0.56588360  0.38151861     0.21400
C1120       C  0.43398509  0.56864007  0.39577113    -0.38500
C1121       C  0.40919256  0.58507459  0.39292791     0.20400
C1122       C  0.40353892  0.59766077  0.37710438     0.23000
C1123       C  0.42200828  0.59496791  0.36295421    -0.39000
C1124       C  0.44663583  0.57865409  0.36578793     0.21800
N1125       N  0.47810038  0.55252814  0.38096324    -0.32300
C1126       C  0.48839394  0.55716644  0.36480591    -0.09800
C1127       C  0.46932198  0.57321553  0.35497525    -0.28600
N1128       N  0.37886363  0.61224079  0.37759051    -0.45200
C1129       C  0.36850416  0.60900328  0.39380038    -0.04500
C1130       C  0.38681774  0.59224742  0.40385274    -0.21900
H1131       H  0.43864618  0.55899941  0.40816015     0.19900
H1132       H  0.41767083  0.60514449  0.35067807     0.18700
H1133       H  0.47221203  0.58084252  0.34188919     0.15000
H1134       H  0.38406061  0.58606962  0.41722539     0.14900
H1135       H  0.48838968  0.54197881  0.39109722     0.33000
H1136       H  0.36956522  0.62368376  0.36745015     0.35800
C1137       C  0.70808439  0.82474487  0.49450137     0.21400
C1138       C  0.69992267  0.82817719  0.51188133    -0.38500
C1139       C  0.72235842  0.82706232  0.52404350     0.20400
C1140       C  0.75069296  0.82274604  0.51925446     0.23000
C1141       C  0.75881014  0.81919367  0.50192068    -0.39000
C1142       C  0.73644298  0.82042729  0.48977731     0.21800
N1143       N  0.69103192  0.82555573  0.48042687    -0.32300
C1144       C  0.70874822  0.82179947  0.46668274    -0.09800
C1145       C  0.73717959  0.81844540  0.47201750    -0.28600
N1146       N  0.76798013  0.82264028  0.53319425    -0.45200
C1147       C  0.75054761  0.82688365  0.54698164    -0.04500
C1148       C  0.72193660  0.82975352  0.54181224    -0.21900
H1149       H  0.67780293  0.83166280  0.51564520     0.19900
H1150       H  0.78095979  0.81592875  0.49814990     0.18700
H1151       H  0.75591772  0.81529307  0.46395475     0.15000
H1152       H  0.70336009  0.83320905  0.54996613     0.14900
H1153       H  0.66882522  0.82870221  0.48017060     0.33000
H1154       H  0.79021532  0.81968883  0.53333379     0.35800
C1155       C  0.76461327  0.91458714  0.37982970     0.21400
C1156       C  0.76985069  0.94288329  0.37495063    -0.38500
C1157       C  0.79834391  0.94921905  0.37057847     0.20400
C1158       C  0.81993260  0.92890990  0.37099985     0.23000
C1159       C  0.81460138  0.90051258  0.37569012    -0.39000
C1160       C  0.78611353  0.89417530  0.38010132     0.21800
N1161       N  0.73975825  0.90361898  0.38551405    -0.32300
C1162       C  0.74551213  0.87608297  0.38944655    -0.09800
C1163       C  0.77409541  0.86924565  0.38610677    -0.28600
N1164       N  0.84534421  0.94055753  0.36677551    -0.45200
C1165       C  0.83984168  0.96843032  0.36361684    -0.04500
C1166       C  0.81076241  0.97463996  0.36578176    -0.21900
H1167       H  0.75310945  0.95890217  0.37491580     0.19900
H1168       H  0.83149304  0.88468280  0.37621576     0.18700
H1169       H  0.78483632  0.84913516  0.38840429     0.15000
H1170       H  0.80019904  0.99502489  0.36415126     0.14900
H1171       H  0.72026531  0.91437305  0.38703370     0.33000
H1172       H  0.86517600  0.93019295  0.36603885     0.35800
C1173       C  0.56279144  0.88133509  0.39259522     0.21400
C1174       C  0.53773150  0.89682281  0.39643335    -0.38500
C1175       C  0.51920514  0.90176586  0.38239257     0.20400
C1176       C  0.52519351  0.89182506  0.36589255     0.23000
C1177       C  0.55010406  0.87633299  0.36208853    -0.39000
C1178       C  0.56863865  0.87159030  0.37604091     0.21800
N1179       N  0.58379150  0.87357494  0.40359704    -0.32300
C1180       C  0.60300802  0.85882634  0.39388787    -0.09800
C1181       C  0.59432619  0.85722489  0.37665953    -0.28600
N1182       N  0.50388180  0.89832047  0.35492131    -0.45200
C1183       C  0.48408198  0.91251211  0.36442686    -0.04500
C1184       C  0.49285581  0.91522721  0.38164122    -0.21900
H1185       H  0.53292985  0.90427971  0.40937761     0.19900
H1186       H  0.55462442  0.86837820  0.34921268     0.18700
H1187       H  0.60525440  0.84675132  0.36604032     0.15000
H1188       H  0.48106293  0.92471259  0.39226081     0.14900
H1189       H  0.58493846  0.87790941  0.41682029     0.33000
H1190       H  0.50249788  0.89268869  0.34185343     0.35800
C1191       C  0.65342633  0.69079728  0.39432765     0.21400
C1192       C  0.63816981  0.66589963  0.39825938    -0.38500
C1193       C  0.63288316  0.64753891  0.38431023     0.20400
C1194       C  0.64206150  0.65342861  0.36766493     0.23000
C1195       C  0.65759862  0.67826776  0.36373931    -0.39000
C1196       C  0.66287801  0.69672869  0.37773486     0.21800
N1197       N  0.65865651  0.71282871  0.40499823    -0.32300
C1198       C  0.67129941  0.73306751  0.39514028    -0.09800
C1199       C  0.67470280  0.72371090  0.37810641    -0.28600
N1200       N  0.63286333  0.63320657  0.35657244    -0.45200
C1201       C  0.61785130  0.61442422  0.36633650    -0.04500
C1202       C  0.61747194  0.62257222  0.38366533    -0.21900
H1203       H  0.63012909  0.66161871  0.41112609     0.19900
H1204       H  0.66417979  0.68332745  0.35068015     0.18700
H1205       H  0.68281416  0.73577495  0.36723809     0.15000
H1206       H  0.60679771  0.61196045  0.39429071     0.14900
H1207       H  0.65247268  0.71463143  0.41794462     0.33000
H1208       H  0.63624280  0.63241124  0.34323449     0.35800
C1209       C  0.75823720  0.14659892  0.99094942     0.21400
C1210       C  0.76409644  0.14041970  0.00834687    -0.38500
C1211       C  0.74083519  0.14314462  0.01976557     0.20400
C1212       C  0.71371380  0.15123385  0.01429180     0.23000
C1213       C  0.70786815  0.15753680  0.99687507    -0.39000
C1214       C  0.73121071  0.15496498  0.98545265     0.21800
N1215       N  0.77654328  0.14494619  0.97753539    -0.32300
C1216       C  0.76111413  0.15236620  0.96337277    -0.09800
C1217       C  0.73276736  0.15887776  0.96779521    -0.28600
N1218       N  0.69528698  0.15204172  0.02770813    -0.45200
C1219       C  0.71089018  0.14459413  0.04182145    -0.04500
C1220       C  0.73936449  0.13889220  0.03736325    -0.21900
H1221       H  0.78520303  0.13385899  0.01266938     0.19900
H1222       H  0.68669926  0.16384867  0.99252527     0.18700
H1223       H  0.71546428  0.16490090  0.95918357     0.15000
H1224       H  0.75668047  0.13255366  0.04588035     0.14900
H1225       H  0.79805228  0.13867644  0.97794091     0.33000
H1226       H  0.67357004  0.15758120  0.02732531     0.35800
C1227       C  0.21761488  0.31962462  0.99149009     0.21400
C1228       C  0.21108146  0.32115766  0.00917374    -0.38500
C1229       C  0.23468337  0.32025937  0.02046249     0.20400
C1230       C  0.26273635  0.31832931  0.01462725     0.23000
C1231       C  0.26928340  0.31669101  0.99690974    -0.39000
C1232       C  0.24560629  0.31723578  0.98560415     0.21800
N1233       N  0.19898915  0.32023595  0.97817882    -0.32300
C1234       C  0.21520026  0.31802391  0.96369495    -0.09800
C1235       C  0.24437195  0.31597645  0.96779061    -0.28600
N1236       N  0.28124877  0.31778082  0.02803151    -0.45200
C1237       C  0.26475621  0.31908936  0.04246615    -0.04500
C1238       C  0.23564859  0.32068601  0.03825168    -0.21900
H1239       H  0.18920621  0.32279294  0.01381199     0.19900
H1240       H  0.29115500  0.31497664  0.99227393     0.18700
H1241       H  0.26227226  0.31435277  0.95891260     0.15000
H1242       H  0.21760705  0.32191268  0.04704830     0.14900
H1243       H  0.17668398  0.32215355  0.97889017     0.33000
H1244       H  0.30360930  0.31626425  0.02741449     0.35800
C1245       C  0.90173048  0.49049519  0.76665424     0.21400
C1246       C  0.90507446  0.51523063  0.75664517    -0.38500
C1247       C  0.90151287  0.51162576  0.73874928     0.20400
C1248       C  0.89530671  0.48531668  0.73142095     0.23000
C1249       C  0.89169979  0.46062919  0.74144178    -0.39000
C1250       C  0.89508407  0.46427432  0.75935038     0.21800
N1251       N  0.90413947  0.48830123  0.78390982    -0.32300
C1252       C  0.89883367  0.46054407  0.78766785    -0.09800
C1253       C  0.89299832  0.44485531  0.77268488    -0.28600
N1254       N  0.89332221  0.48744461  0.71415027    -0.45200
C1255       C  0.89800345  0.51532651  0.71043660    -0.04500
C1256       C  0.90319506  0.53114186  0.72544600    -0.21900
H1257       H  0.91009210  0.53575964  0.76237550     0.19900
H1258       H  0.88665632  0.44010504  0.73570947     0.18700
H1259       H  0.88796934  0.42234380  0.77169082     0.15000
H1260       H  0.90773560  0.55375055  0.72646674     0.14900
H1261       H  0.90889384  0.50473291  0.79262122     0.33000
H1262       H  0.88886921  0.47094532  0.70540788     0.35800
C1263       C  0.01693665  0.39892663  0.87764302     0.21400
C1264       C  0.03395349  0.39627464  0.89261499    -0.38500
C1265       C  0.05977236  0.38107275  0.89059534     0.20400
C1266       C  0.06790274  0.36954719  0.87483408     0.23000
C1267       C  0.05083359  0.37201141  0.85993538    -0.39000
C1268       C  0.02506527  0.38709566  0.86196511     0.21800
N1269       N  0.99120720  0.41176839  0.87620313    -0.32300
C1270       C  0.98284117  0.40787580  0.85953461    -0.09800
C1271       C  0.00342136  0.39259925  0.85025004    -0.28600
N1272       N  0.09338055  0.35635564  0.87617400    -0.45200
C1273       C  0.10170019  0.35934562  0.89289568    -0.04500
C1274       C  0.08121072  0.37455682  0.90237222    -0.21900
H1275       H  0.02750965  0.40527661  0.90492532     0.19900
H1276       H  0.05711594  0.36273411  0.84766746     0.18700
H1277       H  0.00236934  0.38586268  0.83685350     0.15000
H1278       H  0.08200977  0.38026635  0.91594406     0.14900
H1279       H  0.97966477  0.42183971  0.88606429     0.33000
H1280       H  0.10448179  0.34590266  0.86627193     0.35800
C1281       C  0.83513054  0.31128032  0.86100772     0.21400
C1282       C  0.82163644  0.28503767  0.85739961    -0.38500
C1283       C  0.81893172  0.26632359  0.87149417     0.20400
C1284       C  0.82917542  0.27317262  0.88782276     0.23000
C1285       C  0.84257910  0.29930206  0.89141159    -0.39000
C1286       C  0.84499427  0.31802853  0.87743012     0.21800
N1287       N  0.84135516  0.33240588  0.84982671    -0.32300
C1288       C  0.85530629  0.35254715  0.85932026    -0.09800
C1289       C  0.85770299  0.34441838  0.87656770    -0.28600
N1290       N  0.82461275  0.25169328  0.89892607    -0.45200
C1291       C  0.81110848  0.23101806  0.88970223    -0.04500
C1292       C  0.80720649  0.23928715  0.87251549    -0.21900
H1293       H  0.81403599  0.27950706  0.84457784     0.19900
H1294       H  0.85077492  0.30457672  0.90414253     0.18700
H1295       H  0.86833568  0.35585179  0.88696216     0.15000
H1296       H  0.79756839  0.22698936  0.86213643     0.14900
H1297       H  0.83712588  0.33275979  0.83657296     0.33000
H1298       H  0.83048970  0.25106617  0.91196696     0.35800
C1299       C  0.07477174  0.97759506  0.77185348     0.21400
C1300       C  0.06937544  0.95390806  0.76116894    -0.38500
C1301       C  0.07244657  0.95861451  0.74338792     0.20400
C1302       C  0.08012246  0.98499034  0.73680571     0.23000
C1303       C  0.08574107  0.00863176  0.74749314    -0.39000
C1304       C  0.08279690  0.00388198  0.76529092     0.21800
N1305       N  0.07265431  0.97876076  0.78913654    -0.32300
C1306       C  0.07937075  0.00593466  0.79365410    -0.09800
C1307       C  0.08600783  0.02228341  0.77914670    -0.28600
N1308       N  0.08094416  0.98412447  0.71948411    -0.45200
C1309       C  0.07396772  0.95699972  0.71500439    -0.04500
C1310       C  0.06858010  0.94034345  0.72954137    -0.21900
H1311       H  0.06303723  0.93339810  0.76632390     0.19900
H1312       H  0.09170310  0.02924060  0.74231661     0.18700
H1313       H  0.09188118  0.04463710  0.77877192     0.15000
H1314       H  0.06234299  0.91808676  0.72990926     0.14900
H1315       H  0.06673738  0.96212740  0.79736238     0.33000
H1316       H  0.08599524  0.00096444  0.71119116     0.35800
C1317       C  0.95065350  0.07460028  0.86569659     0.21400
C1318       C  0.92721553  0.09245502  0.86228262    -0.38500
C1319       C  0.90821511  0.09676546  0.87607813     0.20400
C1320       C  0.91216728  0.08436975  0.89213007     0.23000
C1321       C  0.93570336  0.06646878  0.89557037    -0.39000
C1322       C  0.95475653  0.06206840  0.88170272     0.21800
N1323       N  0.97243963  0.06834819  0.85495901    -0.32300
C1324       C  0.99074875  0.05185230  0.86417426    -0.09800
C1325       C  0.98035081  0.04725340  0.88088234    -0.28600
N1326       N  0.89085049  0.09190155  0.90301578    -0.45200
C1327       C  0.87325292  0.10904965  0.89367780    -0.04500
C1328       C  0.88346525  0.11262891  0.87689371    -0.21900
H1329       H  0.92412574  0.10247559  0.84982569     0.19900
H1330       H  0.93909209  0.05691721  0.90813144     0.18700
H1331       H  0.99084041  0.03588930  0.89128366     0.15000
H1332       H  0.87384002  0.12495647  0.86659082     0.14900
H1333       H  0.97531695  0.07592306  0.84238425     0.33000
H1334       H  0.88822612  0.08551023  0.91581251     0.35800
C1335       C  0.14079426  0.19710624  0.89069114     0.21400
C1336       C  0.12223397  0.17412338  0.89377635    -0.38500
C1337       C  0.12151351  0.15303747  0.88091079     0.20400
C1338       C  0.13788092  0.15469088  0.86600547     0.23000
C1339       C  0.15652235  0.17778378  0.86290306    -0.39000
C1340       C  0.15733811  0.19893644  0.87586053     0.21800
N1341       N  0.14472695  0.22010243  0.90080434    -0.32300
C1342       C  0.16384415  0.23689855  0.89241721    -0.09800
C1343       C  0.17233607  0.22441276  0.87679777    -0.28600
N1344       N  0.13305667  0.13182874  0.85577707    -0.45200
C1345       C  0.11363611  0.11557103  0.86437413    -0.04500
C1346       C  0.10594680  0.12812525  0.88005761    -0.21900
H1347       H  0.10920481  0.17281313  0.90533799     0.10300
H1348       H  0.16929010  0.17925422  0.85124809     0.18700
H1349       H  0.18683447  0.23314083  0.86723748     0.15000
H1350       H  0.09094899  0.12007002  0.88956289     0.14900
H1351       H  0.13444433  0.22445122  0.91252755     0.33000
H1352       H  0.14250438  0.12744551  0.84382973     0.35800
C1353       C  0.41286454  0.50950491  0.76620359     0.21400
C1354       C  0.41334565  0.51800334  0.74876972    -0.38500
C1355       C  0.41203484  0.49578475  0.73649722     0.20400
C1356       C  0.41009580  0.46738303  0.74126606     0.23000
C1357       C  0.40968901  0.45893774  0.75862923    -0.39000
C1358       C  0.41122363  0.48104378  0.77084816     0.21800
N1359       N  0.41345139  0.52633087  0.78038228    -0.32300
C1360       C  0.41219390  0.50830906  0.79407599    -0.09800
C1361       C  0.41087571  0.47996196  0.78861469    -0.28600
N1362       N  0.40840441  0.45038353  0.72727458    -0.45200
C1363       C  0.40944143  0.46798100  0.71344070    -0.04500
C1364       C  0.41182938  0.49648244  0.71863886    -0.21900
H1365       H  0.41452370  0.54021675  0.74503859     0.19900
H1366       H  0.40811610  0.43674682  0.76236080     0.18700
H1367       H  0.40937967  0.46108992  0.79659740     0.15000
H1368       H  0.41268488  0.51516683  0.71046361     0.14900
H1369       H  0.41433088  0.54858067  0.78072684     0.33000
H1370       H  0.40651089  0.42814219  0.72713973     0.35800
C1371       C  0.30614385  0.45370461  0.87630604     0.21400
C1372       C  0.27669231  0.44904119  0.87874177    -0.38500
C1373       C  0.26911697  0.42191667  0.88473325     0.20400
C1374       C  0.28931543  0.40092107  0.88796383     0.23000
C1375       C  0.31891236  0.40575636  0.88579555    -0.39000
C1376       C  0.32652665  0.43300866  0.87982803     0.21800
N1377       N  0.31856943  0.47726891  0.86998021    -0.32300
C1378       C  0.34709178  0.47169026  0.86947671    -0.09800
C1379       C  0.35302113  0.44435872  0.87563637    -0.28600
N1380       N  0.27637015  0.37663618  0.89295018    -0.45200
C1381       C  0.24782091  0.38241641  0.89302609    -0.04500
C1382       C  0.24247479  0.41047028  0.88809555    -0.21900
H1383       H  0.26079947  0.46521423  0.87590551     0.19900
H1384       H  0.33475993  0.38937910  0.88826670     0.18700
H1385       H  0.37373116  0.43395811  0.87644495     0.15000
H1386       H  0.22184836  0.42095294  0.88695614     0.14900
H1387       H  0.30820910  0.49587539  0.86596689     0.33000
H1388       H  0.28631122  0.35743183  0.89626625     0.35800
C1389       C  0.56789991  0.00005832  0.77611486     0.21400
C1390       C  0.56899200  0.02536958  0.76639482    -0.38500
C1391       C  0.56611792  0.02195880  0.74840458     0.20400
C1392       C  0.56200364  0.99539919  0.74086670     0.23000
C1393       C  0.56093565  0.97023655  0.75054322    -0.39000
C1394       C  0.56422256  0.97358112  0.76840542     0.21800
N1395       N  0.57079251  0.99727214  0.79332485    -0.32300
C1396       C  0.56908293  0.96884409  0.79648761    -0.09800
C1397       C  0.56505026  0.95338521  0.78126531    -0.28600
N1398       N  0.56102202  0.99745674  0.72361724    -0.45200
C1399       C  0.56498622  0.02541047  0.71997989    -0.04500
C1400       C  0.56807295  0.04155430  0.73510452    -0.21900
H1401       H  0.57245136  0.04604116  0.77235238     0.19900
H1402       H  0.55834035  0.94947848  0.74454177     0.18700
H1403       H  0.56289844  0.93049270  0.77981993     0.15000
H1404       H  0.57208357  0.06425472  0.73619024     0.14900
H1405       H  0.57383148  0.01366851  0.80236366     0.33000
H1406       H  0.55888849  0.98064205  0.71480099     0.35800
C1407       C  0.68762190  0.06824530  0.88476360     0.21400
C1408       C  0.65872914  0.06384684  0.88021065    -0.38500
C1409       C  0.65049569  0.03528046  0.87780520     0.20400
C1410       C  0.66963138  0.01289909  0.87975501     0.23000
C1411       C  0.69836861  0.01726342  0.88448037    -0.39000
C1412       C  0.70656663  0.04575635  0.88688058     0.21800
N1413       N  0.70092769  0.09330826  0.88765048    -0.32300
C1414       C  0.72843809  0.08658562  0.89171464    -0.09800
C1415       C  0.73276419  0.05717371  0.89135862    -0.28600
N1416       N  0.65709961  0.98796712  0.87569730    -0.45200
C1417       C  0.62978539  0.99448142  0.87115458    -0.04500
C1418       C  0.62470117  0.02372683  0.87244804    -0.21900
H1419       H  0.64389703  0.08136268  0.87841063     0.19900
H1420       H  0.71336242  0.99978467  0.88590462     0.18700
H1421       H  0.75236004  0.04569324  0.89422671     0.15000
H1422       H  0.60526810  0.03508843  0.86906041     0.14900
H1423       H  0.69176790  0.11364695  0.88720185     0.33000
H1424       H  0.66678312  0.96786849  0.87549402     0.35800
C1425       C  0.25562212  0.80506320  0.99363717     0.21400
C1426       C  0.26231893  0.80502795  0.01135888    -0.38500
C1427       C  0.23879056  0.80312757  0.02265521     0.20400
C1428       C  0.21070758  0.80161627  0.01677149     0.23000
C1429       C  0.20402961  0.80135568  0.99905034    -0.39000
C1430       C  0.22757679  0.80302593  0.98774693     0.21800
N1431       N  0.27402277  0.80745898  0.98029692    -0.32300
C1432       C  0.25759407  0.80669777  0.96579819    -0.09800
C1433       C  0.22852971  0.80383414  0.96992722    -0.28600
N1434       N  0.19216517  0.80148112  0.03011811    -0.45200
C1435       C  0.20859971  0.80281556  0.04459268    -0.04500
C1436       C  0.23777771  0.80363771  0.04046745    -0.21900
H1437       H  0.28420188  0.80677107  0.01601739     0.19900
H1438       H  0.18209638  0.80033327  0.99440498     0.18700
H1439       H  0.21049384  0.80300200  0.96108027     0.15000
H1440       H  0.25575968  0.80543450  0.04930756     0.14900
H1441       H  0.29633934  0.80955166  0.98100349     0.33000
H1442       H  0.16976728  0.80109374  0.02942608     0.35800
C1443       C  0.18871837  0.89443685  0.88486988     0.21400
C1444       C  0.15996389  0.89990347  0.88047832    -0.38500
C1445       C  0.15321373  0.92861023  0.87731029     0.20400
C1446       C  0.17362384  0.95010126  0.87836022     0.23000
C1447       C  0.20225369  0.94468158  0.88287669    -0.39000
C1448       C  0.20892996  0.91608303  0.88611391     0.21800
N1449       N  0.20056720  0.86909561  0.88875149    -0.32300
C1450       C  0.22836750  0.87487252  0.89268344    -0.09800
C1451       C  0.23441338  0.90387296  0.89111667    -0.28600
N1452       N  0.16223176  0.97532249  0.87394387    -0.45200
C1453       C  0.13435964  0.96994459  0.87003505    -0.04500
C1454       C  0.12779170  0.94108923  0.87213534    -0.21900
H1455       H  0.14408885  0.88306142  0.87950276     0.19900
H1456       H  0.21819558  0.96148641  0.88372241     0.18700
H1457       H  0.25460104  0.91462907  0.89366354     0.15000
H1458       H  0.10754968  0.93051282  0.86949535     0.14900
H1459       H  0.19023830  0.84931336  0.88921222     0.33000
H1460       H  0.17296564  0.99487756  0.87316766     0.35800
C1461       C  0.40627592  0.88176247  0.89404560     0.21400
C1462       C  0.43068720  0.89818287  0.89815214    -0.38500
C1463       C  0.44943125  0.90383247  0.88433046     0.20400
C1464       C  0.44417916  0.89380065  0.86774930     0.23000
C1465       C  0.41979885  0.87752852  0.86364576    -0.39000
C1466       C  0.40110239  0.87197679  0.87740574     0.21800
N1467       N  0.38560110  0.87270522  0.90489159    -0.32300
C1468       C  0.36721177  0.85713888  0.89501314    -0.09800
C1469       C  0.37611816  0.85629492  0.87781125    -0.28600
N1470       N  0.46594746  0.90045508  0.85713838    -0.45200
C1471       C  0.48537092  0.91473489  0.86696825    -0.04500
C1472       C  0.47575843  0.91751942  0.88400472    -0.21900
H1473       H  0.43504997  0.90551510  0.91118921     0.19900
H1474       H  0.41595512  0.86931893  0.85073800     0.18700
H1475       H  0.36588470  0.84532421  0.86709374     0.15000
H1476       H  0.48713205  0.92693369  0.89484150     0.14900
H1477       H  0.38416947  0.87669305  0.91816178     0.33000
H1478       H  0.46800936  0.89458932  0.84414635     0.35800
C1479       C  0.34558570  0.65194724  0.86649489     0.21400
C1480       C  0.32737691  0.67505777  0.86282514    -0.38500
C1481       C  0.32264745  0.69417641  0.87657675     0.20400
C1482       C  0.33516846  0.69044809  0.89267266     0.23000
C1483       C  0.35327063  0.66741002  0.89632924    -0.39000
C1484       C  0.35798243  0.64840472  0.88263409     0.21800
N1485       N  0.35346103  0.63070503  0.85574092    -0.32300
C1486       C  0.37090959  0.61363897  0.86521143    -0.09800
C1487       C  0.37431071  0.62404286  0.88199068    -0.28600
N1488       N  0.32858512  0.71213397  0.90329294    -0.45200
C1489       C  0.31182029  0.72995791  0.89395645    -0.04500
C1490       C  0.30738741  0.71942459  0.87723792    -0.21900
H1491       H  0.31786013  0.67808276  0.85018416     0.19900
H1492       H  0.36321936  0.66466221  0.90887856     0.18700
H1493       H  0.38671371  0.61475642  0.89240023     0.15000
H1494       H  0.29578134  0.72952119  0.86678120     0.14900
H1495       H  0.34714010  0.62781267  0.84291688     0.33000
H1496       H  0.33590114  0.71513396  0.91595758     0.35800
C1497       C  0.74831114  0.64794583  0.98214227     0.21400
C1498       C  0.77298762  0.64638282  0.99251254    -0.38500
C1499       C  0.76802067  0.64493955  0.01033642     0.20400
C1500       C  0.74055369  0.64526892  0.01722352     0.23000
C1501       C  0.71588685  0.64658997  0.00686087    -0.39000
C1502       C  0.72085160  0.64779841  0.98904362     0.21800
N1503       N  0.74725912  0.64928408  0.96484948    -0.32300
C1504       C  0.71897480  0.64972612  0.96073417    -0.09800
C1505       C  0.70176018  0.64877327  0.97544660    -0.28600
N1506       N  0.74153004  0.64356043  0.03447964    -0.45200
C1507       C  0.76974711  0.64185451  0.03860945    -0.04500
C1508       C  0.78705165  0.64266376  0.02393189    -0.21900
H1509       H  0.79442320  0.64613007  0.98709233     0.19900
H1510       H  0.69444163  0.64648961  0.01227481     0.18700
H1511       H  0.67852061  0.64875815  0.97608825     0.15000
H1512       H  0.81026100  0.64154899  0.02330007     0.14900
H1513       H  0.76469692  0.64948509  0.95634708     0.33000
H1514       H  0.72402032  0.64313262  0.04293496     0.35800
C1515       C  0.77030008  0.55315372  0.87774947     0.21400
C1516       C  0.77347873  0.52489726  0.87221828    -0.38500
C1517       C  0.80174845  0.51599739  0.86949192     0.20400
C1518       C  0.82517379  0.53378317  0.87211819     0.23000
C1519       C  0.82195995  0.56219920  0.87761683    -0.39000
C1520       C  0.79355218  0.57120245  0.88028398     0.21800
N1521       N  0.74567011  0.56631876  0.88171554    -0.32300
C1522       C  0.75317941  0.59295295  0.88683704    -0.09800
C1523       C  0.78284018  0.59700549  0.88599954    -0.28600
N1524       N  0.84973131  0.52022357  0.86810873    -0.45200
C1525       C  0.84162097  0.49383438  0.86274147    -0.04500
C1526       C  0.81195156  0.49035129  0.86355301    -0.21900
H1527       H  0.75525866  0.51088248  0.87016089     0.19900
H1528       H  0.84017018  0.57622997  0.87963506     0.18700
H1529       H  0.79492886  0.61583136  0.88968112     0.15000
H1530       H  0.79947360  0.47181838  0.85977743     0.14900
H1531       H  0.72503533  0.55750488  0.88133558     0.33000
H1532       H  0.87052937  0.52864546  0.86845614     0.35800
C1533       C  0.58151879  0.58088140  0.87937837     0.21400
C1534       C  0.56655064  0.56902470  0.86536796    -0.38500
C1535       C  0.53896280  0.55884353  0.86903376     0.20400
C1536       C  0.52711471  0.56021647  0.88543705     0.23000
C1537       C  0.54210602  0.57224106  0.89950089    -0.39000
C1538       C  0.56981033  0.58250226  0.89581401     0.21800
N1539       N  0.60745054  0.59332873  0.87894629    -0.32300
C1540       C  0.61235327  0.60313638  0.89517701    -0.09800
C1541       C  0.58948908  0.59664088  0.90615449    -0.28600
N1542       N  0.49973887  0.55093308  0.88516096    -0.45200
C1543       C  0.49416201  0.54408339  0.86841465    -0.04500
C1544       C  0.51815299  0.54853128  0.85803109    -0.21900
H1545       H  0.57540954  0.56857077  0.85242917     0.19900
H1546       H  0.53261876  0.57418719  0.91222690     0.18700
H1547       H  0.58721284  0.60227494  0.91967435     0.15000
H1548       H  0.51959147  0.54622340  0.84412142     0.14900
H1549       H  0.62072111  0.59562933  0.86814646     0.33000
H1550       H  0.48521345  0.55108378  0.89544882     0.35800
C1551       C  0.63589873  0.82296121  0.87751225     0.21400
C1552       C  0.64492217  0.80731417  0.89191553    -0.38500
C1553       C  0.65618574  0.78028049  0.88834587     0.20400
C1554       C  0.65856752  0.76966582  0.87166933     0.23000
C1555       C  0.64945400  0.78536884  0.85719949    -0.39000
C1556       C  0.63797825  0.81247468  0.86078815     0.21800
N1557       N  0.62311595  0.84853950  0.87767509    -0.32300
C1558       C  0.61682489  0.85453132  0.86098151    -0.09800
C1559       C  0.62590350  0.83263706  0.84997272    -0.28600
N1560       N  0.66856733  0.74274778  0.87189241    -0.45200
C1561       C  0.67211305  0.73620373  0.88883908    -0.04500
C1562       C  0.66476108  0.75910816  0.89946903    -0.21900
H1563       H  0.64257026  0.81530071  0.90499595     0.19900
H1564       H  0.65054368  0.77683685  0.84418657     0.18700
H1565       H  0.62327813  0.83129382  0.83607972     0.15000
H1566       H  0.66453434  0.75973704  0.91346896     0.14900
H1567       H  0.61843060  0.86096692  0.88856543     0.33000
H1568       H  0.67141283  0.72922351  0.86128032     0.35800
loop_ 
_geom_bond_atom_site_label_1 
_geom_bond_atom_site_label_2 
_geom_bond_distance 
_geom_bond_site_symmetry_2 
_ccdc_geom_bond_type 
O1            C4   1.266       .  A
O1           Cd6   2.461       .  S
C2           O11   1.264       .  A
C2            O7   1.267       .  A
C2         C1540   1.466       .  S
O3            C9   1.263       .  A
O3           Cd6   2.486       .  S
C4           O12   1.264       .  A
C4         C1504   1.461       .  S
C5           O10   1.267       .  A
C5            O8   1.262       .  A
C5         C1522   1.462       .  S
Cd6          O13   2.456       .  S
Cd6          O12   2.433       .  S
Cd6          O11   2.428       .  S
Cd6           O7   2.479       .  S
Cd6          O10   2.484       .  S
Cd6           O8   2.413       .  S
C9           O13   1.262       .  A
C9         C1561   1.468       .  S
O14          C17   1.268       .  A
O14         Cd19   2.496       .  S
C15          O24   1.264       .  A
C15          O20   1.269       .  A
C15        C1468   1.470       .  S
O16          C22   1.267       .  A
O16         Cd19   2.488       .  S
C17          O25   1.265       .  A
C17        C1432   1.476       .  S
C18          O23   1.268       .  A
C18          O21   1.263       .  A
C18        C1450   1.465       .  S
Cd19         O26   2.437       .  S
Cd19         O25   2.465       .  S
Cd19         O24   2.432       .  S
Cd19         O20   2.487       .  S
Cd19         O23   2.478       .  S
Cd19         O21   2.419       .  S
C22          O26   1.264       .  A
C22        C1489   1.468       .  S
O27          C30   1.267       .  A
O27         Cd32   2.479       .  S
C28          O37   1.263       .  A
C28          O33   1.268       .  A
C28        C1558   1.468       .  S
O29          C35   1.264       .  A
O29         Cd32   2.434       .  S
C30          O38   1.262       .  A
C30        C1396   1.469       .  S
C31          O36   1.264       .  A
C31          O34   1.262       .  A
C31        C1471   1.471       .  S
Cd32         O39   2.461       .  S
Cd32         O38   2.455       .  S
Cd32         O37   2.421       .  S
Cd32         O33   2.501       .  S
Cd32         O36   2.496       .  S
Cd32         O34   2.458       .  S
C35          O39   1.267       .  A
C35        C1417   1.464       .  S
O40          C43   1.267       .  A
O40         Cd45   2.498       .  S
C41          O50   1.262       .  A
C41          O46   1.266       .  A
C41        C1486   1.467       .  S
O42          C48   1.267       .  A
O42         Cd45   2.484       .  S
C43          O51   1.265       .  A
C43        C1360   1.474       .  S
C44          O49   1.264       .  A
C44          O47   1.264       .  A
C44        C1543   1.467       .  S
Cd45         O52   2.434       .  S
Cd45         O51   2.448       .  S
Cd45         O50   2.433       .  S
Cd45         O46   2.492       .  S
Cd45         O49   2.481       .  S
Cd45         O47   2.448       .  S
C48          O52   1.263       .  A
C48        C1378   1.467       .  S
O53          C56   1.266       .  A
O53         Cd58   2.489       .  S
C54          O63   1.264       .  A
C54          O59   1.267       .  A
C54        C1345   1.470       .  S
O55          C61   1.265       .  A
O55         Cd58   2.478       .  S
C56          O64   1.263       .  A
C56        C1306   1.469       .  S
C57          O62   1.265       .  A
C57          O60   1.263   1_565  A
C57        C1453   1.469       .  S
Cd58         O65   2.474       .  S
Cd58         O64   2.445       .  S
Cd58         O63   2.435       .  S
Cd58         O59   2.496       .  S
Cd58         O62   2.486   1_545  S
Cd58         O60   2.454       .  S
C61          O65   1.265       .  A
C61        C1324   1.473   1_455  S
O66          C69   1.268       .  A
O66         Cd71   2.505       .  S
C67          O76   1.268       .  A
C67          O72   1.264       .  A
C67        C1252   1.472       .  S
O68          C74   1.263       .  A
O68         Cd71   2.419       .  S
C69          O77   1.263       .  A
C69        C1288   1.469       .  S
C70          O75   1.264       .  A
C70          O73   1.265       .  A
C70        C1270   1.473       .  S
Cd71         O78   2.481       .  S
Cd71         O77   2.416       .  S
Cd71         O76   2.489       .  S
Cd71         O72   2.454       .  S
Cd71         O75   2.475       .  S
Cd71         O73   2.474       .  S
C74          O78   1.267       .  A
C74        C1525   1.463       .  S
O79          C82   1.268       .  A
O79         Cd84   2.491       .  S
C80          O89   1.270       .  A
C80          O85   1.265       .  A
C80        C1273   1.476       .  S
O81          C87   1.265       .  A
O81         Cd84   2.454       .  S
C82          O90   1.263       .  A
C82        C1234   1.472       .  S
C83          O88   1.264       .  A
C83          O86   1.267       .  A
C83        C1342   1.472       .  S
Cd84         O91   2.476       .  S
Cd84         O90   2.455       .  S
Cd84         O89   2.508       .  S
Cd84         O85   2.440       .  S
Cd84         O88   2.442       .  S
Cd84         O86   2.498       .  S
C87          O91   1.266       .  A
C87        C1381   1.468       .  S
O92          C95   1.267       .  A
O92         Cd97   2.483       .  S
C93         O102   1.263       .  A
C93          O98   1.268       .  A
C93        C1327   1.471       .  S
O94         C100   1.266       .  A
O94         Cd97   2.484       .  S
C95         O103   1.264       .  A
C95        C1216   1.474       .  S
C96         O101   1.266       .  A
C96          O99   1.266       .  A
C96        C1291   1.471       .  S
Cd97        O104   2.441       .  S
Cd97        O103   2.462       .  S
Cd97        O102   2.423       .  S
Cd97         O98   2.503       .  S
Cd97        O101   2.474       .  S
Cd97         O99   2.460       .  S
C100        O104   1.263       .  A
C100       C1414   1.467       .  S
O105        C108   1.267       .  A
O105       Cd110   2.489       .  S
C106        O115   1.264       .  A
C106        O111   1.267       .  A
C106       C1144   1.473       .  S
O107        C113   1.263       .  A
O107       Cd110   2.468       .  S
C108        O116   1.263       .  A
C108       C1180   1.469       .  S
C109        O114   1.266       .  A
C109        O112   1.263       .  A
C109       C1162   1.461       .  S
Cd110       O117   2.460       .  S
Cd110       O116   2.439       .  S
Cd110       O115   2.454       .  S
Cd110       O111   2.493       .  S
Cd110       O114   2.459       .  S
Cd110       O112   2.428       .  S
C113        O117   1.264       .  A
C113       C1198   1.466       .  S
O118        C121   1.267       .  A
O118       Cd123   2.466       .  S
C119        O128   1.264       .  A
C119        O124   1.267       .  A
C119       C1201   1.463       .  S
O120        C126   1.266       .  A
O120       Cd123   2.482       .  S
C121        O129   1.264       .  A
C121       C1090   1.466       .  S
C122        O127   1.268       .  A
C122        O125   1.264       .  A
C122       C1108   1.463       .  S
Cd123       O130   2.423       .  S
Cd123       O129   2.436       .  S
Cd123       O128   2.420       .  S
Cd123       O124   2.472       .  S
Cd123       O127   2.464       .  S
Cd123       O125   2.420       .  S
C126        O130   1.263       .  A
C126       C1126   1.465       .  S
O131        C134   1.266       .  A
O131       Cd136   2.458       .  S
C132        O141   1.264       .  A
C132        O137   1.267       .  A
C132       C1129   1.465       .  S
O133        C139   1.266       .  A
O133       Cd136   2.485       .  S
C134        O142   1.263       .  A
C134       C1036   1.462       .  S
C135        O140   1.266       .  A
C135        O138   1.263       .  A
C135       C1072   1.467       .  S
Cd136       O143   2.439       .  S
Cd136       O142   2.437       .  S
Cd136       O141   2.417       .  S
Cd136       O137   2.488       .  S
Cd136       O140   2.474       .  S
Cd136       O138   2.444       .  S
C139        O143   1.264       .  A
C139       C1054   1.469       .  S
O144        C147   1.268       .  A
O144       Cd149   2.490       .  S
C145        O154   1.263       .  A
C145        O150   1.267       .  A
C145       C1000   1.469       .  S
O146        C152   1.266       .  A
O146       Cd149   2.481       .  S
C147        O155   1.263       .  A
C147       C1075   1.467       .  S
C148        O153   1.265       .  A
C148        O151   1.264       .  A
C148       C1183   1.467       .  S
Cd149       O156   2.425       .  S
Cd149       O155   2.428       .  S
Cd149       O154   2.445       .  S
Cd149       O150   2.484       .  S
Cd149       O153   2.474       .  S
Cd149       O151   2.442       .  S
C152        O156   1.264       .  A
C152       C1021   1.465       .  S
O157        C160   1.267       .  A
O157       Cd162   2.493       .  S
C158        O167   1.265       .  A
C158        O163   1.268       .  A
C158        C967   1.471       .  S
O159        C165   1.266       .  A
O159       Cd162   2.494       .  S
C160        O168   1.263       .  A
C160        C946   1.469       .  S
C161        O166   1.268       .  A
C161        O164   1.264       .  A
C161       C1018   1.469       .  S
Cd162       O169   2.456       .  S
Cd162       O168   2.438       .  S
Cd162       O167   2.445       .  S
Cd162       O163   2.483       .  S
Cd162       O166   2.498       .  S
Cd162       O164   2.431       .  S
C165        O169   1.263       .  A
C165        C985   1.473       .  S
O170        C173   1.268       .  A
O170       Cd175   2.487       .  S
C171        O180   1.264       .  A
C171        O176   1.268       .  A
C171        C982   1.475       .  S
O172        C178   1.266       .  A
O172       Cd175   2.485       .  S
C173        O181   1.262       .  A
C173        C910   1.468       .  S
C174        O179   1.265       .  A
C174        O177   1.264       .  A
C174        C931   1.465   1_455  S
Cd175       O182   2.430       .  S
Cd175       O181   2.436       .  S
Cd175       O180   2.446       .  S
Cd175       O176   2.510       .  S
Cd175       O179   2.466       .  S
Cd175       O177   2.446       .  S
C178        O182   1.264       .  A
C178       C1057   1.467       .  S
O183        C186   1.267       .  A
O183       Cd188   2.467       .  S
C184        O193   1.264       .  A
C184        O189   1.268       .  A
C184        C892   1.470       .  S
O185        C191   1.266       .  A
O185       Cd188   2.484   1_565  S
C186        O194   1.265   1_545  A
C186        C877   1.469   1_545  S
C187        O192   1.266       .  A
C187        O190   1.264       .  A
C187        C964   1.475       .  S
Cd188       O195   2.449       .  S
Cd188       O194   2.457   1_545  S
Cd188       O193   2.422       .  S
Cd188       O189   2.499       .  S
Cd188       O192   2.501       .  S
Cd188       O190   2.469       .  S
C191        O195   1.262   1_565  A
C191       C1165   1.467       .  S
O196        C199   1.267       .  A
O196       Cd201   2.491       .  S
C197        O206   1.265       .  A
C197        O202   1.266       .  A
C197        C856   1.468       .  S
O198        C204   1.268       .  A
O198       Cd201   2.492       .  S
C199        O207   1.263       .  A
C199        C928   1.465       .  S
C200        O205   1.264       .  A
C200        O203   1.262       .  A
C200        C895   1.469       .  S
Cd201       O208   2.428       .  S
Cd201       O207   2.417       .  S
Cd201       O206   2.455       .  S
Cd201       O202   2.465       .  S
Cd201       O205   2.485       .  S
Cd201       O203   2.458       .  S
C204        O208   1.263       .  A
C204       C1111   1.467       .  S
O209        C212   1.268       .  A
O209       Cd214   2.494       .  S
C210        O219   1.262       .  A
C210        O215   1.267       .  A
C210       C1507   1.459       .  S
O211        C217   1.264       .  A
O211       Cd214   2.436       .  S
C212        O220   1.264       .  A
C212        C820   1.465       .  S
C213        O218   1.265       .  A
C213        O216   1.264       .  A
C213        C841   1.468       .  S
Cd214       O221   2.480       .  S
Cd214       O220   2.407       .  S
Cd214       O219   2.400       .  S
Cd214       O215   2.476       .  S
Cd214       O218   2.482       .  S
Cd214       O216   2.442       .  S
C217        O221   1.266       .  A
C217        C802   1.467       .  S
O222        C225   1.264       .  A
O222       Cd227   2.448       .  S
C223        O232   1.267       .  A
C223        O228   1.263       .  A
C223        C787   1.470       .  S
O224        C230   1.265       .  A
O224       Cd227   2.423       .  S
C225        O233   1.268       .  A
C225        C913   1.471       .  S
C226        O231   1.264       .  A
C226        O229   1.264       .  A
C226        C823   1.462   1_455  S
Cd227       O234   2.466       .  S
Cd227       O233   2.488       .  S
Cd227       O232   2.487       .  S
Cd227       O228   2.454       .  S
Cd227       O231   2.456       .  S
Cd227       O229   2.440       .  S
C230        O234   1.266       .  A
C230        C769   1.462       .  S
O235        C238   1.267       .  A
O235       Cd240   2.503       .  S
C236        O245   1.262       .  A
C236        O241   1.268       .  A
C236        C838   1.470       .  S
O237        C243   1.266       .  A
O237       Cd240   2.474       .  S
C238        O246   1.263       .  A
C238        C874   1.472       .  S
C239        O244   1.265       .  A
C239        O242   1.263       .  A
C239        C748   1.471       .  S
Cd240       O247   2.459       .  S
Cd240       O246   2.440       .  S
Cd240       O245   2.420       .  S
Cd240       O241   2.515       .  S
Cd240       O244   2.491       .  S
Cd240       O242   2.457       .  S
C243        O247   1.265       .  A
C243        C733   1.469       .  S
O248        C251   1.268       .  A
O248       Cd253   2.487       .  S
C249        O258   1.264       .  A
C249        O254   1.268       .  A
C249        C751   1.473       .  S
O250        C256   1.267       .  A
O250       Cd253   2.485       .  S
C251        O259   1.264       .  A
C251       C1435   1.472       .  S
C252        O257   1.268       .  A
C252        O255   1.264       .  A
C252        C712   1.469       .  S
Cd253       O260   2.442       .  S
Cd253       O259   2.448       .  S
Cd253       O258   2.441       .  S
Cd253       O254   2.505       .  S
Cd253       O257   2.486       .  S
Cd253       O255   2.436       .  S
C256        O260   1.263       .  A
C256        C784   1.469       .  S
O261        C264   1.268       .  A
O261       Cd266   2.501       .  S
C262        O271   1.262       .  A
C262        O267   1.268       .  A
C262        C694   1.468       .  S
O263        C269   1.266       .  A
O263       Cd266   2.467       .  S
C264        O272   1.263       .  A
C264       C1237   1.473       .  S
C265        O270   1.264       .  A
C265        O268   1.264       .  A
C265        C679   1.465       .  S
Cd266       O273   2.406       .  S
Cd266       O272   2.444       .  S
Cd266       O271   2.417       .  S
Cd266       O267   2.505       .  S
Cd266       O270   2.471       .  S
Cd266       O268   2.443       .  S
C269        O273   1.264       .  A
C269        C766   1.458       .  S
O274        C277   1.263       .  A
O274       Cd279   2.448       .  S
C275        O284   1.268       .  A
C275        O280   1.262   1_545  A
C275       C1003   1.469       .  S
O276        C282   1.265   1_545  A
O276       Cd279   2.447       .  S
C277        O285   1.268       .  A
C277        C676   1.469       .  S
C278        O283   1.265       .  A
C278        O281   1.263       .  A
C278        C661   1.468       .  S
Cd279       O286   2.479   1_545  S
Cd279       O285   2.480       .  S
Cd279       O284   2.502       .  S
Cd279       O280   2.432   1_545  S
Cd279       O283   2.480       .  S
Cd279       O281   2.450       .  S
C282        O286   1.266       .  A
C282        C715   1.469       .  S
O287        C290   1.266       .  A
O287       Cd292   2.482       .  S
C288        O297   1.263       .  A
C288        O293   1.267       .  A
C288        C643   1.476       .  S
O289        C295   1.264       .  A
O289       Cd292   2.469       .  S
C290        O298   1.262       .  A
C290       C1093   1.466       .  S
C291        O296   1.266       .  A
C291        O294   1.265       .  A
C291        C805   1.468       .  S
Cd292       O299   2.461       .  S
Cd292       O298   2.438       .  S
Cd292       O297   2.447       .  S
Cd292       O293   2.516       .  S
Cd292       O296   2.490       .  S
Cd292       O294   2.428       .  S
C295        O299   1.263       .  A
C295        C697   1.466       .  S
O300        C303   1.267       .  A
O300       Cd305   2.522       .  S
C301        O310   1.264       .  A
C301        O306   1.267       .  A
C301       C1219   1.475       .  S
O302        C308   1.264       .  A
O302       Cd305   2.507       .  S
C303        O311   1.262       .  A
C303        C658   1.471       .  S
C304        O309   1.268       .  A
C304        O307   1.263       .  A
C304        C730   1.467       .  S
Cd305       O312   2.470       .  S
Cd305       O311   2.419       .  S
Cd305       O310   2.457       .  S
Cd305       O306   2.503       .  S
Cd305       O309   2.480       .  S
Cd305       O307   2.430       .  S
C308        O312   1.264       .  A
C308        C640   1.476       .  S
O313        C316   1.267       .  A
O313       Cd318   2.485       .  S
C314        O323   1.264       .  A
C314        O319   1.267       .  A
C314       C1147   1.471       .  S
O315        C321   1.266       .  A
O315       Cd318   2.491       .  S
C316        O324   1.264       .  A
C316        C604   1.469       .  S
C317        O322   1.267       .  A
C317        O320   1.264       .  A
C317        C586   1.464       .  S
Cd318       O325   2.445       .  S
Cd318       O324   2.442       .  S
Cd318       O323   2.456       .  S
Cd318       O319   2.478       .  S
Cd318       O322   2.459       .  S
Cd318       O320   2.444       .  S
C321        O325   1.263       .  A
C321        C622   1.471       .  S
O326        C329   1.268       .  A
O326       Cd331   2.502       .  S
C327        O336   1.262       .  A
C327        O332   1.268       .  A
C327       C1255   1.471       .  S
O328        C334   1.267       .  A
O328       Cd331   2.487       .  S
C329        O337   1.265       .  A
C329        C625   1.476       .  S
C330        O335   1.265       .  A
C330        O333   1.263       .  A
C330        C568   1.472       .  S
Cd331       O338   2.428       .  S
Cd331       O337   2.461       .  S
Cd331       O336   2.443       .  S
Cd331       O332   2.497       .  S
Cd331       O335   2.485       .  S
Cd331       O333   2.469       .  S
C334        O338   1.263       .  A
C334        C550   1.465       .  S
O339        C342   1.265       .  A
O339       Cd344   2.436       .  S
C340        O349   1.261       .  A
C340        O345   1.267       .  A
C340       C1309   1.464       .  S
O341        C347   1.265       .  A
O341       Cd344   2.435       .  S
C342        O350   1.267       .  A
C342        C532   1.467       .  S
C343        O348   1.262       .  A
C343        O346   1.266       .  A
C343        C607   1.470   1_455  S
Cd344       O351   2.492       .  S
Cd344       O350   2.476       .  S
Cd344       O349   2.422       .  S
Cd344       O345   2.486       .  S
Cd344       O348   2.453       .  S
Cd344       O346   2.484       .  S
C347        O351   1.268       .  A
C347        C514   1.471       .  S
O352        C355   1.267       .  A
O352       Cd357   2.487       .  S
C353        O362   1.264       .  A
C353        O358   1.268       .  A
C353        C571   1.470       .  S
O354        C360   1.266       .  A
O354       Cd357   2.467       .  S
C355        O363   1.262       .  A
C355       C1039   1.466       .  S
C356        O361   1.265       .  A
C356        O359   1.263       .  A
C356        C535   1.464       .  S
Cd357       O364   2.414       .  S
Cd357       O363   2.430       .  S
Cd357       O362   2.449       .  S
Cd357       O358   2.478       .  S
Cd357       O361   2.470       .  S
Cd357       O359   2.437       .  S
C360        O364   1.264       .  A
C360        C496   1.461       .  S
O365        C368   1.268       .  A
O365       Cd370   2.503       .  S
C366        O375   1.263       .  A
C366        O371   1.267       .  A
C366        C463   1.467       .  S
O367        C373   1.265       .  A
O367       Cd370   2.485       .  S
C368        O376   1.264       .  A
C368        C949   1.473       .  S
C369        O374   1.267       .  A
C369        O372   1.264       .  A
C369        C517   1.468       .  S
Cd370       O377   2.450       .  S
Cd370       O376   2.444       .  S
Cd370       O375   2.442       .  S
Cd370       O371   2.481       .  S
Cd370       O374   2.483       .  S
Cd370       O372   2.431       .  S
C373        O377   1.264       .  A
C373        C481   1.470       .  S
O378        C381   1.267       .  A
O378       Cd383   2.506       .  S
C379        O388   1.266       .  A
C379        O384   1.264       .  A
C379       C1363   1.471       .  S
O380        C386   1.264       .  A
O380       Cd383   2.480       .  S
C381        O389   1.264       .  A
C381        C478   1.473       .  S
C382        O387   1.266       .  A
C382        O385   1.264       .  A
C382        C499   1.465       .  S
Cd383       O390   2.439       .  S
Cd383       O389   2.445       .  S
Cd383       O388   2.471       .  S
Cd383       O384   2.470       .  S
Cd383       O387   2.485       .  S
Cd383       O385   2.424       .  S
C386        O390   1.263       .  A
C386        C442   1.465       .  S
O391        C394   1.263       .  A
O391       Cd396   2.417       .  S
C392        O401   1.263       .  A
C392        O397   1.269       .  A
C392        C427   1.469       .  S
O393        C399   1.265       .  A
O393       Cd396   2.478       .  S
C394        O402   1.268       .  A
C394       C1399   1.467       .  S
C395        O400   1.266       .  A
C395        O398   1.263       .  A
C395        C460   1.464       .  S
Cd396       O403   2.437       .  S
Cd396       O402   2.498       .  S
Cd396       O401   2.418       .  S
Cd396       O397   2.494       .  S
Cd396       O400   2.476       .  S
Cd396       O398   2.425       .  S
C399        O403   1.263       .  A
C399        C589   1.465   1_545  S
O404        C407   1.267       .  A
O404       Cd409   2.482       .  S
C405        O414   1.263       .  A
C405        O410   1.267       .  A
C405        C445   1.467       .  S
O406        C412   1.265       .  A
O406       Cd409   2.487       .  S
C407        O415   1.264       .  A
C407        C859   1.470       .  S
C408        O413   1.267       .  A
C408        O411   1.264       .  A
C408        C553   1.468       .  S
Cd409       O416   2.455       .  S
Cd409       O415   2.451       .  S
Cd409       O414   2.435       .  S
Cd409       O410   2.483       .  S
Cd409       O413   2.482       .  S
Cd409       O411   2.435       .  S
C412        O416   1.265       .  A
C412        C424   1.471       .  S
C417        C422   1.384       .  A
C417        C418   1.408       .  A
C417        N423   1.347       .  A
C418        C419   1.406       .  A
C418        H429   1.082       .  S
C419        C428   1.384       .  A
C419        C420   1.385       .  A
C420        C421   1.400       .  A
C420        N426   1.339       .  A
C421        C422   1.398       .  A
C421        H430   1.082       .  S
C422        C425   1.375       .  A
N423        C424   1.358       .  A
N423        H433   1.043       .  S
C424        C425   1.393       .  A
C425        H431   1.082       .  S
N426        C427   1.354       .  A
N426        H434   1.045       .  S
C427        C428   1.397       .  A
C428        H432   1.082       .  S
C435        C440   1.385       .  A
C435        C436   1.405       .  A
C435        N441   1.345       .  A
C436        C437   1.404       .  A
C436        H447   1.082       .  S
C437        C446   1.380       .  A
C437        C438   1.385       .  A
C438        C439   1.400       .  A
C438        N444   1.340       .  A
C439        C440   1.398       .  A
C439        H448   1.083       .  S
C440        C443   1.373       .  A
N441        C442   1.356       .  A
N441        H451   1.043       .  S
C442        C443   1.392       .  A
C443        H449   1.083       .  S
N444        C445   1.354       .  A
N444        H452   1.045       .  S
C445        C446   1.395       .  A
C446        H450   1.082       .  S
C453        C458   1.385       .  A
C453        C454   1.400       .  A
C453        N459   1.339       .  A
C454        C455   1.399       .  A
C454        H465   1.083       .  S
C455        C464   1.375       .  A
C455        C456   1.385       .  A
C456        C457   1.404       .  A
C456        N462   1.343       .  A
C457        C458   1.403       .  A
C457        H466   1.082       .  S
C458        C461   1.380       .  A
N459        C460   1.353       .  A
N459        H469   1.045       .  S
C460        C461   1.395       .  A
C461        H467   1.082       .  S
N462        C463   1.355       .  A
N462        H470   1.044       .  S
C463        C464   1.394       .  A
C464        H468   1.083       .  S
C471        C476   1.384       .  A
C471        C472   1.408       .  A
C471        N477   1.348       .  A
C472        C473   1.408       .  A
C472        H483   1.082       .  S
C473        C482   1.383       .  A
C473        C474   1.385       .  A
C474        C475   1.400       .  A
C474        N480   1.341       .  A
C475        C476   1.399       .  A
C475        H484   1.082       .  S
C476        C479   1.373       .  A
N477        C478   1.358       .  A
N477        H487   1.042       .  S
C478        C479   1.393       .  A
C479        H485   1.082       .  S
N480        C481   1.353       .  A
N480        H488   1.045       .  S
C481        C482   1.398       .  A
C482        H486   1.082       .  S
C489        C494   1.385       .  A
C489        C490   1.397       .  A
C489        N495   1.337       .  A
C490        C491   1.396       .  A
C490        H501   1.083       .  S
C491        C500   1.370       .  A
C491        C492   1.385       .  A
C492        C493   1.406       .  A
C492        N498   1.346       .  A
C493        C494   1.405       .  A
C493        H502   1.082       .  S
C494        C497   1.380       .  A
N495        C496   1.352       .  A
N495        H505   1.045       .  S
C496        C497   1.396       .  A
C497        H503   1.082       .  S
N498        C499   1.357       .  A
N498        H506   1.043       .  S
C499        C500   1.390       .  A
C500        H504   1.083       .  S
C507        C512   1.385       .  A
C507        C508   1.407       .  A
C507        N513   1.347       .  A
C508        C509   1.406       .  A
C508        H519   1.082       .  S
C509        C518   1.382       .  A
C509        C510   1.385       .  A
C510        C511   1.399       .  A
C510        N516   1.340       .  A
C511        C512   1.399       .  A
C511        H520   1.082       .  S
C512        C515   1.373   1_545  A
N513        C514   1.357   1_545  A
N513        H523   1.045       .  S
C514        C515   1.393       .  A
C515        H521   1.082       .  S
N516        C517   1.353       .  A
N516        H524   1.045       .  S
C517        C518   1.396       .  A
C518        H522   1.082       .  S
C525        C530   1.385       .  A
C525        C526   1.405       .  A
C525        N531   1.344       .  A
C526        C527   1.404       .  A
C526        H537   1.082       .  S
C527        C536   1.380       .  A
C527        C528   1.385       .  A
C528        C529   1.399       .  A
C528        N534   1.340       .  A
C529        C530   1.398       .  A
C529        H538   1.082       .  S
C530        C533   1.373       .  A
N531        C532   1.356       .  A
N531        H541   1.045       .  S
C532        C533   1.393       .  A
C533        H539   1.083       .  S
N534        C535   1.353       .  A
N534        H542   1.045       .  S
C535        C536   1.396       .  A
C536        H540   1.082       .  S
C543        C548   1.385       .  A
C543        C544   1.399       .  A
C543        N549   1.340       .  A
C544        C545   1.398       .  A
C544        H555   1.082       .  S
C545        C554   1.373       .  A
C545        C546   1.385       .  A
C546        C547   1.406       .  A
C546        N552   1.346       .  A
C547        C548   1.405       .  A
C547        H556   1.082       .  S
C548        C551   1.382       .  A
N549        C550   1.353       .  A
N549        H559   1.044       .  S
C550        C551   1.396       .  A
C551        H557   1.082       .  S
N552        C553   1.357       .  A
N552        H560   1.044       .  S
C553        C554   1.392       .  A
C554        H558   1.083       .  S
C561        C566   1.385       .  A
C561        C562   1.404       .  A
C561        N567   1.344   1_455  A
C562        C563   1.403       .  A
C562        H573   1.082       .  S
C563        C572   1.379       .  A
C563        C564   1.385       .  A
C564        C565   1.404       .  A
C564        N570   1.343       .  A
C565        C566   1.403       .  A
C565        H574   1.082       .  S
C566        C569   1.378       .  A
N567        C568   1.356       .  A
N567        H577   1.043       .  S
C568        C569   1.395   1_655  A
C569        H575   1.082       .  S
N570        C571   1.356       .  A
N570        H578   1.045       .  S
C571        C572   1.394       .  A
C572        H576   1.082       .  S
C579        C584   1.385       .  A
C579        C580   1.401       .  A
C579        N585   1.342       .  A
C580        C581   1.400       .  A
C580        H591   1.082       .  S
C581        C590   1.374       .  A
C581        C582   1.385       .  A
C582        C583   1.402       .  A
C582        N588   1.344       .  A
C583        C584   1.402       .  A
C583        H592   1.082       .  S
C584        C587   1.376       .  A
N585        C586   1.355       .  A
N585        H595   1.044       .  S
C586        C587   1.393       .  A
C587        H593   1.082       .  S
N588        C589   1.355       .  A
N588        H596   1.045       .  S
C589        C590   1.393       .  A
C590        H594   1.082   1_565  S
C597        C602   1.385       .  A
C597        C598   1.404       .  A
C597        N603   1.345       .  A
C598        C599   1.403       .  A
C598        H609   1.082       .  S
C599        C608   1.379       .  A
C599        C600   1.385       .  A
C600        C601   1.402       .  A
C600        N606   1.343       .  A
C601        C602   1.401       .  A
C601        H610   1.083       .  S
C602        C605   1.376       .  A
N603        C604   1.356       .  A
N603        H613   1.043       .  S
C604        C605   1.394       .  A
C605        H611   1.083       .  S
N606        C607   1.356       .  A
N606        H614   1.045       .  S
C607        C608   1.395       .  A
C608        H612   1.082       .  S
C615        C620   1.385       .  A
C615        C616   1.403       .  A
C615        N621   1.342       .  A
C616        C617   1.402       .  A
C616        H627   1.083       .  S
C617        C626   1.378       .  A
C617        C618   1.384       .  A
C618        C619   1.406       .  A
C618        N624   1.347       .  A
C619        C620   1.405       .  A
C619        H628   1.082       .  S
C620        C623   1.382       .  A
N621        C622   1.355       .  A
N621        H631   1.045       .  S
C622        C623   1.396       .  A
C623        H629   1.082       .  S
N624        C625   1.357       .  A
N624        H632   1.042       .  S
C625        C626   1.396       .  A
C626        H630   1.083       .  S
C633        C638   1.384       .  A
C633        C634   1.410       .  A
C633        N639   1.349       .  A
C634        C635   1.409       .  A
C634        H645   1.082       .  S
C635        C644   1.387       .  A
C635        C636   1.384       .  A
C636        C637   1.401       .  A
C636        N642   1.341       .  A
C637        C638   1.399       .  A
C637        H646   1.082       .  S
C638        C641   1.375       .  A
N639        C640   1.359       .  A
N639        H649   1.044       .  S
C640        C641   1.393       .  A
C641        H647   1.082       .  S
N642        C643   1.354       .  A
N642        H650   1.045       .  S
C643        C644   1.399       .  A
C644        H648   1.082       .  S
C651        C656   1.384       .  A
C651        C652   1.408       .  A
C651        N657   1.350       .  A
C652        C653   1.409       .  A
C652        H663   1.082       .  S
C653        C662   1.382       .  A
C653        C654   1.385       .  A
C654        C655   1.397       .  A
C654        N660   1.340       .  A
C655        C656   1.397       .  A
C655        H664   1.082       .  S
C656        C659   1.369       .  A
N657        C658   1.358       .  A
N657        H667   1.043       .  S
C658        C659   1.391       .  A
C659        H665   1.083       .  S
N660        C661   1.352       .  A
N660        H668   1.045       .  S
C661        C662   1.398       .  A
C662        H666   1.082       .  S
C669        C674   1.385       .  A
C669        C670   1.401       .  A
C669        N675   1.342       .  A
C670        C671   1.400       .  A
C670        H681   1.082       .  S
C671        C680   1.374       .  A
C671        C672   1.385       .  A
C672        C673   1.403       .  A
C672        N678   1.344       .  A
C673        C674   1.403       .  A
C673        H682   1.082       .  S
C674        C677   1.378       .  A
N675        C676   1.355       .  A
N675        H685   1.045       .  S
C676        C677   1.394       .  A
C677        H683   1.082       .  S
N678        C679   1.356       .  A
N678        H686   1.044       .  S
C679        C680   1.392       .  A
C680        H684   1.082       .  S
C687        C692   1.385       .  A
C687        C688   1.404       .  A
C687        N693   1.347       .  A
C688        C689   1.405       .  A
C688        H699   1.082       .  S
C689        C698   1.378       .  A
C689        C690   1.385       .  A
C690        C691   1.399       .  A
C690        N696   1.342       .  A
C691        C692   1.399       .  A
C691        H700   1.083       .  S
C692        C695   1.371       .  A
N693        C694   1.356       .  A
N693        H703   1.043       .  S
C694        C695   1.392       .  A
C695        H701   1.083       .  S
N696        C697   1.354       .  A
N696        H704   1.045       .  S
C697        C698   1.395       .  A
C698        H702   1.082       .  S
C705        C710   1.385       .  A
C705        C706   1.400       .  A
C705        N711   1.340       .  A
C706        C707   1.399       .  A
C706        H717   1.082       .  S
C707        C716   1.374       .  A
C707        C708   1.385       .  A
C708        C709   1.407       .  A
C708        N714   1.346       .  A
C709        C710   1.406       .  A
C709        H718   1.082       .  S
C710        C713   1.382       .  A
N711        C712   1.354       .  A
N711        H721   1.045       .  S
C712        C713   1.396       .  A
C713        H719   1.082       .  S
N714        C715   1.357       .  A
N714        H722   1.045       .  S
C715        C716   1.392       .  A
C716        H720   1.082       .  S
C723        C728   1.385       .  A
C723        C724   1.401       .  A
C723        N729   1.340       .  A
C724        C725   1.400       .  A
C724        H735   1.082   1_545  S
C725        C734   1.376   1_545  A
C725        C726   1.385       .  A
C726        C727   1.405       .  A
C726        N732   1.344       .  A
C727        C728   1.403       .  A
C727        H736   1.082       .  S
C728        C731   1.380       .  A
N729        C730   1.354       .  A
N729        H739   1.045       .  S
C730        C731   1.395       .  A
C731        H737   1.082       .  S
N732        C733   1.356   1_545  A
N732        H740   1.045       .  S
C733        C734   1.394       .  A
C734        H738   1.082       .  S
C741        C746   1.385       .  A
C741        C742   1.401       .  A
C741        N747   1.341   1_455  A
C742        C743   1.400       .  A
C742        H753   1.082       .  S
C743        C752   1.374       .  A
C743        C744   1.384       .  A
C744        C745   1.407       .  A
C744        N750   1.348       .  A
C745        C746   1.407       .  A
C745        H754   1.082       .  S
C746        C749   1.382   1_455  A
N747        C748   1.354       .  A
N747        H757   1.045       .  S
C748        C749   1.397       .  A
C749        H755   1.082       .  S
N750        C751   1.357       .  A
N750        H758   1.044       .  S
C751        C752   1.393       .  A
C752        H756   1.083       .  S
C759        C764   1.386       .  A
C759        C760   1.396       .  A
C759        N765   1.337       .  A
C760        C761   1.395       .  A
C760        H771   1.083       .  S
C761        C770   1.370       .  A
C761        C762   1.385       .  A
C762        C763   1.405       .  A
C762        N768   1.344       .  A
C763        C764   1.404       .  A
C763        H772   1.082       .  S
C764        C767   1.380       .  A
N765        C766   1.351       .  A
N765        H775   1.045       .  S
C766        C767   1.395       .  A
C767        H773   1.082       .  S
N768        C769   1.356       .  A
N768        H776   1.044       .  S
C769        C770   1.390       .  A
C770        H774   1.083       .  S
C777        C782   1.385       .  A
C777        C778   1.403       .  A
C777        N783   1.342       .  A
C778        C779   1.402       .  A
C778        H789   1.083       .  S
C779        C788   1.377       .  A
C779        C780   1.385       .  A
C780        C781   1.404       .  A
C780        N786   1.344       .  A
C781        C782   1.403       .  A
C781        H790   1.082       .  S
C782        C785   1.380       .  A
N783        C784   1.355       .  A
N783        H793   1.045       .  S
C784        C785   1.395       .  A
C785        H791   1.082       .  S
N786        C787   1.355       .  A
N786        H794   1.044       .  S
C787        C788   1.396       .  A
C788        H792   1.083       .  S
C795        C800   1.385       .  A
C795        C796   1.397       .  A
C795        N801   1.339       .  A
C796        C797   1.396       .  A
C796        H807   1.082       .  S
C797        C806   1.370       .  A
C797        C798   1.384       .  A
C798        C799   1.408       .  A
C798        N804   1.348       .  A
C799        C800   1.408       .  A
C799        H808   1.082       .  S
C800        C803   1.383       .  A
N801        C802   1.352       .  A
N801        H811   1.045       .  S
C802        C803   1.398       .  A
C803        H809   1.082       .  S
N804        C805   1.358       .  A
N804        H812   1.044       .  S
C805        C806   1.390       .  A
C806        H810   1.082       .  S
C813        C818   1.385       .  A
C813        C814   1.398       .  A
C813        N819   1.337       .  A
C814        C815   1.396       .  A
C814        H825   1.083       .  S
C815        C824   1.372       .  A
C815        C816   1.385       .  A
C816        C817   1.406       .  A
C816        N822   1.343       .  A
C817        C818   1.404       .  A
C817        H826   1.082       .  S
C818        C821   1.383       .  A
N819        C820   1.352       .  A
N819        H829   1.045       .  S
C820        C821   1.397       .  A
C821        H827   1.082       .  S
N822        C823   1.356       .  A
N822        H830   1.043       .  S
C823        C824   1.391       .  A
C824        H828   1.083       .  S
C831        C836   1.385       .  A
C831        C832   1.399       .  A
C831        N837   1.338       .  A
C832        C833   1.397       .  A
C832        H843   1.083       .  S
C833        C842   1.373       .  A
C833        C834   1.384       .  A
C834        C835   1.408       .  A
C834        N840   1.346       .  A
C835        C836   1.407       .  A
C835        H844   1.082       .  S
C836        C839   1.385       .  A
N837        C838   1.353       .  A
N837        H847   1.045       .  S
C838        C839   1.398       .  A
C839        H845   1.082       .  S
N840        C841   1.357       .  A
N840        H848   1.043       .  S
C841        C842   1.392       .  A
C842        H846   1.083       .  S
C849        C854   1.385       .  A
C849        C850   1.403       .  A
C849        N855   1.343       .  A
C850        C851   1.403       .  A
C850        H861   1.082       .  S
C851        C860   1.377       .  A
C851        C852   1.385       .  A
C852        C853   1.403       .  A
C852        N858   1.344       .  A
C853        C854   1.402       .  A
C853        H862   1.082       .  S
C854        C857   1.377       .  A
N855        C856   1.355       .  A
N855        H865   1.044       .  S
C856        C857   1.394       .  A
C857        H863   1.082       .  S
N858        C859   1.355       .  A
N858        H866   1.044       .  S
C859        C860   1.395       .  A
C860        H864   1.082       .  S
C867        C872   1.385       .  A
C867        C868   1.405       .  A
C867        N873   1.346       .  A
C868        C869   1.405       .  A
C868        H879   1.082       .  S
C869        C878   1.379       .  A
C869        C870   1.385       .  A
C870        C871   1.401   1_565  A
C870        N876   1.343   1_565  A
C871        C872   1.401   1_545  A
C871        H880   1.082       .  S
C872        C875   1.375       .  A
N873        C874   1.356       .  A
N873        H883   1.044       .  S
C874        C875   1.394       .  A
C875        H881   1.082       .  S
N876        C877   1.354   1_545  A
N876        H884   1.044       .  S
C877        C878   1.396       .  A
C878        H882   1.082       .  S
C885        C890   1.385       .  A
C885        C886   1.400       .  A
C885        N891   1.339       .  A
C886        C887   1.398       .  A
C886        H897   1.082       .  S
C887        C896   1.375       .  A
C887        C888   1.384       .  A
C888        C889   1.407       .  A
C888        N894   1.345       .  A
C889        C890   1.406       .  A
C889        H898   1.082       .  S
C890        C893   1.384       .  A
N891        C892   1.353       .  A
N891        H901   1.045       .  S
C892        C893   1.398       .  A
C893        H899   1.082       .  S
N894        C895   1.357       .  A
N894        H902   1.044       .  S
C895        C896   1.393       .  A
C896        H900   1.083       .  S
C903        C908   1.385       .  A
C903        C904   1.402       .  A
C903        N909   1.345       .  A
C904        C905   1.403       .  A
C904        H915   1.082       .  S
C905        C914   1.376       .  A
C905        C906   1.385       .  A
C906        C907   1.403       .  A
C906        N912   1.345       .  A
C907        C908   1.403       .  A
C907        H916   1.082       .  S
C908        C911   1.376       .  A
N909        C910   1.355       .  A
N909        H919   1.043       .  S
C910        C911   1.395       .  A
C911        H917   1.083       .  S
N912        C913   1.355       .  A
N912        H920   1.046       .  S
C913        C914   1.395       .  A
C914        H918   1.082       .  S
C921        C926   1.385       .  A
C921        C922   1.398       .  A
C921        N927   1.338       .  A
C922        C923   1.397       .  A
C922        H933   1.083       .  S
C923        C932   1.373       .  A
C923        C924   1.385       .  A
C924        C925   1.406       .  A
C924        N930   1.344       .  A
C925        C926   1.404       .  A
C925        H934   1.082       .  S
C926        C929   1.382       .  A
N927        C928   1.353       .  A
N927        H937   1.045       .  S
C928        C929   1.396       .  A
C929        H935   1.082       .  S
N930        C931   1.356       .  A
N930        H938   1.043       .  S
C931        C932   1.392       .  A
C932        H936   1.083       .  S
C939        C944   1.384       .  A
C939        C940   1.404       .  A
C939        N945   1.341       .  A
C940        C941   1.402       .  A
C940        H951   1.082       .  S
C941        C950   1.382       .  A
C941        C942   1.384       .  A
C942        C943   1.405       .  A
C942        N948   1.342       .  A
C943        C944   1.403       .  A
C943        H952   1.082       .  S
C944        C947   1.382       .  A
N945        C946   1.355       .  A
N945        H955   1.045       .  S
C946        C947   1.396       .  A
C947        H953   1.082       .  S
N948        C949   1.356       .  A
N948        H956   1.045       .  S
C949        C950   1.396       .  A
C950        H954   1.082       .  S
C957        C962   1.384       .  A
C957        C958   1.407       .  A
C957        N963   1.346   1_455  A
C958        C959   1.406       .  A
C958        H969   1.082       .  S
C959        C968   1.382       .  A
C959        C960   1.385       .  A
C960        C961   1.402       .  A
C960        N966   1.342       .  A
C961        C962   1.402       .  A
C961        H970   1.082       .  S
C962        C965   1.377       .  A
N963        C964   1.357       .  A
N963        H973   1.045       .  S
C964        C965   1.395   1_655  A
C965        H971   1.082       .  S
N966        C967   1.355       .  A
N966        H974   1.045       .  S
C967        C968   1.396       .  A
C968        H972   1.082       .  S
C975        C980   1.384       .  A
C975        C976   1.407       .  A
C975        N981   1.348       .  A
C976        C977   1.406       .  A
C976        H987   1.082       .  S
C977        C986   1.382       .  A
C977        C978   1.384       .  A
C978        C979   1.403       .  A
C978        N984   1.343       .  A
C979        C980   1.402       .  A
C979        H988   1.082       .  S
C980        C983   1.376       .  A
N981        C982   1.357       .  A
N981        H991   1.043       .  S
C982        C983   1.395       .  A
C983        H989   1.083       .  S
N984        C985   1.355       .  A
N984        H992   1.044       .  S
C985        C986   1.396       .  A
C986        H990   1.082       .  S
C993        C998   1.385       .  A
C993        C994   1.404   1_565  A
C993        N999   1.342       .  A
C994        C995   1.402       .  A
C994       H1005   1.082       .  S
C995       C1004   1.381       .  A
C995        C996   1.384   1_545  A
C996        C997   1.403       .  A
C996       N1002   1.341       .  A
C997        C998   1.401       .  A
C997       H1006   1.082       .  S
C998       C1001   1.379       .  A
N999       C1000   1.355       .  A
N999       H1009   1.046   1_565  S
C1000      C1001   1.394       .  A
C1001      H1007   1.082       .  S
N1002      C1003   1.355   1_565  A
N1002      H1010   1.044       .  S
C1003      C1004   1.395       .  A
C1004      H1008   1.082       .  S
C1011      C1016   1.385       .  A
C1011      C1012   1.398       .  A
C1011      N1017   1.338       .  A
C1012      C1013   1.396       .  A
C1012      H1023   1.082       .  S
C1013      C1022   1.371   1_545  A
C1013      C1014   1.385       .  A
C1014      C1015   1.407       .  A
C1014      N1020   1.347       .  A
C1015      C1016   1.407       .  A
C1015      H1024   1.082       .  S
C1016      C1019   1.384       .  A
N1017      C1018   1.353       .  A
N1017      H1027   1.045       .  S
C1018      C1019   1.398       .  A
C1019      H1025   1.082       .  S
N1020      C1021   1.357   1_545  A
N1020      H1028   1.043       .  S
C1021      C1022   1.390       .  A
C1022      H1026   1.083       .  S
C1029      C1034   1.385       .  A
C1029      C1030   1.400       .  A
C1029      N1035   1.342       .  A
C1030      C1031   1.400       .  A
C1030      H1041   1.082       .  S
C1031      C1040   1.373       .  A
C1031      C1032   1.385       .  A
C1032      C1033   1.402       .  A
C1032      N1038   1.344       .  A
C1033      C1034   1.402       .  A
C1033      H1042   1.082       .  S
C1034      C1037   1.375       .  A
N1035      C1036   1.353       .  A
N1035      H1045   1.044       .  S
C1036      C1037   1.394       .  A
C1037      H1043   1.082       .  S
N1038      C1039   1.355       .  A
N1038      H1046   1.044       .  S
C1039      C1040   1.393       .  A
C1040      H1044   1.083       .  S
C1047      C1052   1.385       .  A
C1047      C1048   1.398       .  A
C1047      N1053   1.340       .  A
C1048      C1049   1.397       .  A
C1048      H1059   1.082       .  S
C1049      C1058   1.371       .  A
C1049      C1050   1.384       .  A
C1050      C1051   1.407       .  A
C1050      N1056   1.347       .  A
C1051      C1052   1.407       .  A
C1051      H1060   1.082       .  S
C1052      C1055   1.383       .  A
N1053      C1054   1.353       .  A
N1053      H1063   1.045       .  S
C1054      C1055   1.397       .  A
C1055      H1061   1.082       .  S
N1056      C1057   1.358       .  A
N1056      H1064   1.044       .  S
C1057      C1058   1.391       .  A
C1058      H1062   1.082       .  S
C1065      C1070   1.385       .  A
C1065      C1066   1.405       .  A
C1065      N1071   1.344       .  A
C1066      C1067   1.403       .  A
C1066      H1077   1.082       .  S
C1067      C1076   1.381       .  A
C1067      C1068   1.385       .  A
C1068      C1069   1.400       .  A
C1068      N1074   1.340       .  A
C1069      C1070   1.399       .  A
C1069      H1078   1.083       .  S
C1070      C1073   1.375       .  A
N1071      C1072   1.356       .  A
N1071      H1081   1.043       .  S
C1072      C1073   1.393       .  A
C1073      H1079   1.083       .  S
N1074      C1075   1.354       .  A
N1074      H1082   1.045       .  S
C1075      C1076   1.395       .  A
C1076      H1080   1.082       .  S
C1083      C1088   1.385       .  A
C1083      C1084   1.403       .  A
C1083      N1089   1.341       .  A
C1084      C1085   1.401       .  A
C1084      H1095   1.082       .  S
C1085      C1094   1.379       .  A
C1085      C1086   1.385       .  A
C1086      C1087   1.402       .  A
C1086      N1092   1.341       .  A
C1087      C1088   1.401       .  A
C1087      H1096   1.082       .  S
C1088      C1091   1.378       .  A
N1089      C1090   1.355       .  A
N1089      H1099   1.045       .  S
C1090      C1091   1.394       .  A
C1091      H1097   1.082       .  S
N1092      C1093   1.355       .  A
N1092      H1100   1.045       .  S
C1093      C1094   1.394       .  A
C1094      H1098   1.082       .  S
C1101      C1106   1.385       .  A
C1101      C1102   1.404       .  A
C1101      N1107   1.344       .  A
C1102      C1103   1.404       .  A
C1102      H1113   1.082       .  S
C1103      C1112   1.381       .  A
C1103      C1104   1.385       .  A
C1104      C1105   1.400       .  A
C1104      N1110   1.339       .  A
C1105      C1106   1.398       .  A
C1105      H1114   1.083       .  S
C1106      C1109   1.373       .  A
N1107      C1108   1.355       .  A
N1107      H1117   1.044       .  S
C1108      C1109   1.392       .  A
C1109      H1115   1.083       .  S
N1110      C1111   1.354       .  A
N1110      H1118   1.045       .  S
C1111      C1112   1.396       .  A
C1112      H1116   1.082       .  S
C1119      C1124   1.385       .  A
C1119      C1120   1.406       .  A
C1119      N1125   1.345       .  A
C1120      C1121   1.405       .  A
C1120      H1131   1.082       .  S
C1121      C1130   1.382       .  A
C1121      C1122   1.385       .  A
C1122      C1123   1.397       .  A
C1122      N1128   1.337       .  A
C1123      C1124   1.396       .  A
C1123      H1132   1.083       .  S
C1124      C1127   1.371       .  A
N1125      C1126   1.356       .  A
N1125      H1135   1.044       .  S
C1126      C1127   1.391       .  A
C1127      H1133   1.083       .  S
N1128      C1129   1.352       .  A
N1128      H1136   1.045       .  S
C1129      C1130   1.397       .  A
C1130      H1134   1.082       .  S
C1137      C1142   1.385       .  A
C1137      C1138   1.405       .  A
C1137      N1143   1.346       .  A
C1138      C1139   1.405       .  A
C1138      H1149   1.082       .  S
C1139      C1148   1.379       .  A
C1139      C1140   1.385       .  A
C1140      C1141   1.402       .  A
C1140      N1146   1.344       .  A
C1141      C1142   1.402       .  A
C1141      H1150   1.082       .  S
C1142      C1145   1.376       .  A
N1143      C1144   1.357       .  A
N1143      H1153   1.044       .  S
C1144      C1145   1.394       .  A
C1145      H1151   1.082       .  S
N1146      C1147   1.354       .  A
N1146      H1154   1.044       .  S
C1147      C1148   1.396       .  A
C1148      H1152   1.082       .  S
C1155      C1160   1.385       .  A
C1155      C1156   1.401       .  A
C1155      N1161   1.340       .  A
C1156      C1157   1.400       .  A
C1156      H1167   1.083       .  S
C1157      C1166   1.375       .  A
C1157      C1158   1.385       .  A
C1158      C1159   1.402       .  A
C1158      N1164   1.343       .  A
C1159      C1160   1.401       .  A
C1159      H1168   1.082       .  S
C1160      C1163   1.377       .  A
N1161      C1162   1.354       .  A
N1161      H1171   1.045       .  S
C1162      C1163   1.393       .  A
C1163      H1169   1.082       .  S
N1164      C1165   1.354       .  A
N1164      H1172   1.045       .  S
C1165      C1166   1.395       .  A
C1166      H1170   1.083       .  S
C1173      C1178   1.384       .  A
C1173      C1174   1.406       .  A
C1173      N1179   1.346       .  A
C1174      C1175   1.405       .  A
C1174      H1185   1.082       .  S
C1175      C1184   1.381       .  A
C1175      C1176   1.385       .  A
C1176      C1177   1.400       .  A
C1176      N1182   1.340       .  A
C1177      C1178   1.399       .  A
C1177      H1186   1.082       .  S
C1178      C1181   1.373       .  A
N1179      C1180   1.356       .  A
N1179      H1189   1.043       .  S
C1180      C1181   1.393       .  A
C1181      H1187   1.083       .  S
N1182      C1183   1.353       .  A
N1182      H1190   1.045       .  S
C1183      C1184   1.397       .  A
C1184      H1188   1.082       .  S
C1191      C1196   1.386       .  A
C1191      C1192   1.399       .  A
C1191      N1197   1.340       .  A
C1192      C1193   1.398       .  A
C1192      H1203   1.082       .  S
C1193      C1202   1.372       .  A
C1193      C1194   1.385       .  A
C1194      C1195   1.403       .  A
C1194      N1200   1.344       .  A
C1195      C1196   1.404       .  A
C1195      H1204   1.082       .  S
C1196      C1199   1.378       .  A
N1197      C1198   1.353       .  A
N1197      H1207   1.045       .  S
C1198      C1199   1.395       .  A
C1199      H1205   1.082       .  S
N1200      C1201   1.355       .  A
N1200      H1208   1.044       .  S
C1201      C1202   1.392       .  A
C1202      H1206   1.083       .  S
C1209      C1214   1.385       .  A
C1209      C1210   1.403   1_556  A
C1209      N1215   1.345       .  A
C1210      C1211   1.403       .  A
C1210      H1221   1.082       .  S
C1211      C1220   1.377       .  A
C1211      C1212   1.384       .  A
C1212      C1213   1.406   1_554  A
C1212      N1218   1.347       .  A
C1213      C1214   1.406       .  A
C1213      H1222   1.082       .  S
C1214      C1217   1.380       .  A
N1215      C1216   1.355       .  A
N1215      H1225   1.044       .  S
C1216      C1217   1.397       .  A
C1217      H1223   1.082       .  S
N1218      C1219   1.357       .  A
N1218      H1226   1.044       .  S
C1219      C1220   1.395       .  A
C1220      H1224   1.082       .  S
C1227      C1232   1.385       .  A
C1227      C1228   1.402   1_556  A
C1227      N1233   1.345       .  A
C1228      C1229   1.403       .  A
C1228      H1239   1.082       .  S
C1229      C1238   1.376       .  A
C1229      C1230   1.385       .  A
C1230      C1231   1.405   1_554  A
C1230      N1236   1.347       .  A
C1231      C1232   1.406       .  A
C1231      H1240   1.082       .  S
C1232      C1235   1.379       .  A
N1233      C1234   1.355       .  A
N1233      H1243   1.043       .  S
C1234      C1235   1.397       .  A
C1235      H1241   1.082       .  S
N1236      C1237   1.356       .  A
N1236      H1244   1.044       .  S
C1237      C1238   1.395       .  A
C1238      H1242   1.082       .  S
C1245      C1250   1.384       .  A
C1245      C1246   1.404       .  A
C1245      N1251   1.343       .  A
C1246      C1247   1.403       .  A
C1246      H1257   1.082       .  S
C1247      C1256   1.381       .  A
C1247      C1248   1.384       .  A
C1248      C1249   1.405       .  A
C1248      N1254   1.342       .  A
C1249      C1250   1.403       .  A
C1249      H1258   1.082       .  S
C1250      C1253   1.381       .  A
N1251      C1252   1.356       .  A
N1251      H1261   1.044       .  S
C1252      C1253   1.395       .  A
C1253      H1259   1.082       .  S
N1254      C1255   1.356       .  A
N1254      H1262   1.045       .  S
C1255      C1256   1.395       .  A
C1256      H1260   1.082       .  S
C1263      C1268   1.384       .  A
C1263      C1264   1.407       .  A
C1263      N1269   1.345   1_455  A
C1264      C1265   1.406       .  A
C1264      H1275   1.082       .  S
C1265      C1274   1.385       .  A
C1265      C1266   1.384       .  A
C1266      C1267   1.403       .  A
C1266      N1272   1.342       .  A
C1267      C1268   1.401       .  A
C1267      H1276   1.082       .  S
C1268      C1271   1.379       .  A
N1269      C1270   1.357       .  A
N1269      H1279   1.045       .  S
C1270      C1271   1.394   1_655  A
C1271      H1277   1.082       .  S
N1272      C1273   1.355       .  A
N1272      H1280   1.045       .  S
C1273      C1274   1.398       .  A
C1274      H1278   1.082       .  S
C1281      C1286   1.385       .  A
C1281      C1282   1.406       .  A
C1281      N1287   1.348       .  A
C1282      C1283   1.407       .  A
C1282      H1293   1.082       .  S
C1283      C1292   1.381       .  A
C1283      C1284   1.385       .  A
C1284      C1285   1.400       .  A
C1284      N1290   1.342       .  A
C1285      C1286   1.399       .  A
C1285      H1294   1.082       .  S
C1286      C1289   1.372       .  A
N1287      C1288   1.357       .  A
N1287      H1297   1.043       .  S
C1288      C1289   1.392       .  A
C1289      H1295   1.083       .  S
N1290      C1291   1.354       .  A
N1290      H1298   1.045       .  S
C1291      C1292   1.397       .  A
C1292      H1296   1.082       .  S
C1299      C1304   1.385   1_565  A
C1299      C1300   1.403       .  A
C1299      N1305   1.341       .  A
C1300      C1301   1.400       .  A
C1300      H1311   1.082       .  S
C1301      C1310   1.379       .  A
C1301      C1302   1.385       .  A
C1302      C1303   1.403   1_565  A
C1302      N1308   1.340       .  A
C1303      C1304   1.401       .  A
C1303      H1312   1.082       .  S
C1304      C1307   1.380       .  A
N1305      C1306   1.355   1_565  A
N1305      H1315   1.045       .  S
C1306      C1307   1.395       .  A
C1307      H1313   1.082       .  S
N1308      C1309   1.355       .  A
N1308      H1316   1.045   1_565  S
C1309      C1310   1.393       .  A
C1310      H1314   1.082       .  S
C1317      C1322   1.385       .  A
C1317      C1318   1.401       .  A
C1317      N1323   1.343       .  A
C1318      C1319   1.400       .  A
C1318      H1329   1.082       .  S
C1319      C1328   1.373       .  A
C1319      C1320   1.384       .  A
C1320      C1321   1.406       .  A
C1320      N1326   1.348       .  A
C1321      C1322   1.407       .  A
C1321      H1330   1.082       .  S
C1322      C1325   1.381       .  A
N1323      C1324   1.355       .  A
N1323      H1333   1.045       .  S
C1324      C1325   1.397       .  A
C1325      H1331   1.082       .  S
N1326      C1327   1.357       .  A
N1326      H1334   1.042       .  S
C1327      C1328   1.393       .  A
C1328      H1332   1.083       .  S
C1335      C1340   1.385       .  A
C1335      C1336   1.401       .  A
C1335      N1341   1.341       .  A
C1336      C1337   1.399       .  A
C1336      H1347   1.083       .  S
C1337      C1346   1.374       .  A
C1337      C1338   1.384       .  A
C1338      C1339   1.407       .  A
C1338      N1344   1.347       .  A
C1339      C1340   1.407       .  A
C1339      H1348   1.082       .  S
C1340      C1343   1.383       .  A
N1341      C1342   1.354       .  A
N1341      H1351   1.045       .  S
C1342      C1343   1.397       .  A
C1343      H1349   1.082       .  S
N1344      C1345   1.357       .  A
N1344      H1352   1.043       .  S
C1345      C1346   1.393       .  A
C1346      H1350   1.083       .  S
C1353      C1358   1.384       .  A
C1353      C1354   1.407       .  A
C1353      N1359   1.348       .  A
C1354      C1355   1.407       .  A
C1354      H1365   1.082       .  S
C1355      C1364   1.381       .  A
C1355      C1356   1.385       .  A
C1356      C1357   1.401       .  A
C1356      N1362   1.343       .  A
C1357      C1358   1.401       .  A
C1357      H1366   1.082       .  S
C1358      C1361   1.375       .  A
N1359      C1360   1.358       .  A
N1359      H1369   1.043       .  S
C1360      C1361   1.393       .  A
C1361      H1367   1.082       .  S
N1362      C1363   1.354       .  A
N1362      H1370   1.046       .  S
C1363      C1364   1.397       .  A
C1364      H1368   1.082       .  S
C1371      C1376   1.385       .  A
C1371      C1372   1.400       .  A
C1371      N1377   1.340       .  A
C1372      C1373   1.399       .  A
C1372      H1383   1.082       .  S
C1373      C1382   1.375       .  A
C1373      C1374   1.385       .  A
C1374      C1375   1.406       .  A
C1374      N1380   1.344       .  A
C1375      C1376   1.404       .  A
C1375      H1384   1.082       .  S
C1376      C1379   1.381       .  A
N1377      C1378   1.354       .  A
N1377      H1387   1.045       .  S
C1378      C1379   1.396       .  A
C1379      H1385   1.082       .  S
N1380      C1381   1.356       .  A
N1380      H1388   1.045       .  S
C1381      C1382   1.393       .  A
C1382      H1386   1.082       .  S
C1389      C1394   1.384   1_545  A
C1389      C1390   1.407       .  A
C1389      N1395   1.344   1_545  A
C1390      C1391   1.405       .  A
C1390      H1401   1.082       .  S
C1391      C1400   1.384       .  A
C1391      C1392   1.385   1_545  A
C1392      C1393   1.399       .  A
C1392      N1398   1.338       .  A
C1393      C1394   1.397       .  A
C1393      H1402   1.082       .  S
C1394      C1397   1.376       .  A
N1395      C1396   1.357       .  A
N1395      H1405   1.046   1_565  S
C1396      C1397   1.392       .  A
C1397      H1403   1.082       .  S
N1398      C1399   1.353   1_565  A
N1398      H1406   1.044       .  S
C1399      C1400   1.397       .  A
C1400      H1404   1.082       .  S
C1407      C1412   1.385       .  A
C1407      C1408   1.404       .  A
C1407      N1413   1.344       .  A
C1408      C1409   1.403       .  A
C1408      H1419   1.082       .  S
C1409      C1418   1.378       .  A
C1409      C1410   1.385       .  A
C1410      C1411   1.400       .  A
C1410      N1416   1.341   1_545  A
C1411      C1412   1.399       .  A
C1411      H1420   1.082   1_545  S
C1412      C1415   1.374       .  A
N1413      C1414   1.355       .  A
N1413      H1423   1.045       .  S
C1414      C1415   1.393       .  A
C1415      H1421   1.082       .  S
N1416      C1417   1.354       .  A
N1416      H1424   1.045       .  S
C1417      C1418   1.394   1_565  A
C1418      H1422   1.082       .  S
C1425      C1430   1.384       .  A
C1425      C1426   1.404   1_556  A
C1425      N1431   1.346       .  A
C1426      C1427   1.404       .  A
C1426      H1437   1.082       .  S
C1427      C1436   1.378       .  A
C1427      C1428   1.385       .  A
C1428      C1429   1.404   1_554  A
C1428      N1434   1.346       .  A
C1429      C1430   1.405       .  A
C1429      H1438   1.082       .  S
C1430      C1433   1.379       .  A
N1431      C1432   1.356       .  A
N1431      H1441   1.044       .  S
C1432      C1433   1.396       .  A
C1433      H1439   1.082       .  S
N1434      C1435   1.356       .  A
N1434      H1442   1.044       .  S
C1435      C1436   1.395       .  A
C1436      H1440   1.083       .  S
C1443      C1448   1.385       .  A
C1443      C1444   1.404       .  A
C1443      N1449   1.345       .  A
C1444      C1445   1.404       .  A
C1444      H1455   1.082       .  S
C1445      C1454   1.380       .  A
C1445      C1446   1.385       .  A
C1446      C1447   1.400       .  A
C1446      N1452   1.341       .  A
C1447      C1448   1.399       .  A
C1447      H1456   1.083       .  S
C1448      C1451   1.373       .  A
N1449      C1450   1.355       .  A
N1449      H1459   1.044       .  S
C1450      C1451   1.393       .  A
C1451      H1457   1.083       .  S
N1452      C1453   1.354       .  A
N1452      H1460   1.045       .  S
C1453      C1454   1.396       .  A
C1454      H1458   1.082       .  S
C1461      C1466   1.384       .  A
C1461      C1462   1.406       .  A
C1461      N1467   1.346       .  A
C1462      C1463   1.406       .  A
C1462      H1473   1.082       .  S
C1463      C1472   1.382       .  A
C1463      C1464   1.385       .  A
C1464      C1465   1.401       .  A
C1464      N1470   1.341       .  A
C1465      C1466   1.400       .  A
C1465      H1474   1.082       .  S
C1466      C1469   1.375       .  A
N1467      C1468   1.356       .  A
N1467      H1477   1.044       .  S
C1468      C1469   1.394       .  A
C1469      H1475   1.083       .  S
N1470      C1471   1.354       .  A
N1470      H1478   1.045       .  S
C1471      C1472   1.397       .  A
C1472      H1476   1.082       .  S
C1479      C1484   1.384       .  A
C1479      C1480   1.405       .  A
C1479      N1485   1.346       .  A
C1480      C1481   1.405       .  A
C1480      H1491   1.082       .  S
C1481      C1490   1.381       .  A
C1481      C1482   1.385       .  A
C1482      C1483   1.400       .  A
C1482      N1488   1.340       .  A
C1483      C1484   1.398       .  A
C1483      H1492   1.083       .  S
C1484      C1487   1.373       .  A
N1485      C1486   1.356       .  A
N1485      H1495   1.042       .  S
C1486      C1487   1.393       .  A
C1487      H1493   1.083       .  S
N1488      C1489   1.354       .  A
N1488      H1496   1.045       .  S
C1489      C1490   1.397       .  A
C1490      H1494   1.082       .  S
C1497      C1502   1.385       .  A
C1497      C1498   1.402       .  A
C1497      N1503   1.339       .  A
C1498      C1499   1.399   1_556  A
C1498      H1509   1.082       .  S
C1499      C1508   1.378       .  A
C1499      C1500   1.385       .  A
C1500      C1501   1.400       .  A
C1500      N1506   1.337       .  A
C1501      C1502   1.398   1_554  A
C1501      H1510   1.083       .  S
C1502      C1505   1.376       .  A
N1503      C1504   1.354       .  A
N1503      H1513   1.045       .  S
C1504      C1505   1.393       .  A
C1505      H1511   1.082       .  S
N1506      C1507   1.353       .  A
N1506      H1514   1.045       .  S
C1507      C1508   1.393       .  A
C1508      H1512   1.082       .  S
C1515      C1520   1.385       .  A
C1515      C1516   1.398       .  A
C1515      N1521   1.338       .  A
C1516      C1517   1.397       .  A
C1516      H1527   1.083       .  S
C1517      C1526   1.370       .  A
C1517      C1518   1.385       .  A
C1518      C1519   1.404       .  A
C1518      N1524   1.344       .  A
C1519      C1520   1.403       .  A
C1519      H1528   1.082       .  S
C1520      C1523   1.380       .  A
N1521      C1522   1.353       .  A
N1521      H1531   1.045       .  S
C1522      C1523   1.394       .  A
C1523      H1529   1.082       .  S
N1524      C1525   1.355       .  A
N1524      H1532   1.045       .  S
C1525      C1526   1.391       .  A
C1526      H1530   1.083       .  S
C1533      C1538   1.385       .  A
C1533      C1534   1.399       .  A
C1533      N1539   1.340       .  A
C1534      C1535   1.398       .  A
C1534      H1545   1.082       .  S
C1535      C1544   1.374       .  A
C1535      C1536   1.385       .  A
C1536      C1537   1.406       .  A
C1536      N1542   1.345       .  A
C1537      C1538   1.405       .  A
C1537      H1546   1.082       .  S
C1538      C1541   1.381       .  A
N1539      C1540   1.353       .  A
N1539      H1549   1.045       .  S
C1540      C1541   1.396       .  A
C1541      H1547   1.082       .  S
N1542      C1543   1.357       .  A
N1542      H1550   1.044       .  S
C1543      C1544   1.392       .  A
C1544      H1548   1.082       .  S
C1551      C1556   1.385       .  A
C1551      C1552   1.400       .  A
C1551      N1557   1.339       .  A
C1552      C1553   1.398       .  A
C1552      H1563   1.083       .  S
C1553      C1562   1.375       .  A
C1553      C1554   1.385       .  A
C1554      C1555   1.407       .  A
C1554      N1560   1.345       .  A
C1555      C1556   1.405       .  A
C1555      H1564   1.082       .  S
C1556      C1559   1.383       .  A
N1557      C1558   1.353       .  A
N1557      H1567   1.045       .  S
C1558      C1559   1.397       .  A
C1559      H1565   1.082       .  S
N1560      C1561   1.356       .  A
N1560      H1568   1.043       .  S
C1561      C1562   1.392       .  A
C1562      H1566   1.083       .  S
