geometry optimzed in LAMMPS
_audit_creation_date              2020-12-01 
_audit_creation_method            'lammps2cif' 
_symmetry_space_group_name_H-M    'P1' 
_symmetry_Int_Tables_number       1 
_symmetry_cell_setting            triclinic 
loop_ 
_symmetry_equiv_pos_as_xyz 
  x,y,z 
_cell_length_a                    58.05279106 
_cell_length_b                    58.077927117100266 
_cell_length_c                    55.32450774567576 
_cell_angle_alpha                 90.10264823825275 
_cell_angle_beta                  89.83686291596187 
_cell_angle_gamma                 119.62707403964518 
loop_ 
_atom_site_label 
_atom_site_type_symbol 
_atom_site_fract_x 
_atom_site_fract_y 
_atom_site_fract_z 
_atom_site_charge 
O1          O  0.69984107  0.92953402  0.44253299    -0.73200
O2          O  0.73166550  0.88502669  0.45977221    -0.74200
O3          O  0.73989735  0.93575206  0.47566119    -0.62800
O4          O  0.69285920  0.88017172  0.42613340    -0.71200
O5          O  0.72388704  0.90141200  0.39842960    -0.70800
O6          O  0.76996542  0.95478142  0.44678677    -0.62000
O7          O  0.76273500  0.90484095  0.43166172    -0.74500
O8          O  0.73059184  0.95104799  0.41459914    -0.73300
Cu9        Cu  0.71502415  0.90693496  0.45205064     1.04600
Cu10       Cu  0.74788168  0.92871043  0.42192616     1.04300
C11         C  0.70978440  0.94715877  0.42608263     0.93000
C12         C  0.75180056  0.88742637  0.44831207     0.92100
C13         C  0.76252142  0.95442046  0.46855595     0.84300
C14         C  0.70123049  0.88224151  0.40433396     0.90500
O15         O  0.58893665  0.03357554  0.39588730    -0.73200
O16         O  0.54458185  0.06616094  0.37956432    -0.74200
O17         O  0.59351799  0.07147038  0.36108542    -0.62800
O18         O  0.54152092  0.02941257  0.41522620    -0.71200
O19         O  0.56588928  0.06229518  0.44031457    -0.70800
O20         O  0.61508691  0.10426728  0.38716463    -0.62000
O21         O  0.56725447  0.09915449  0.40525023    -0.74500
O22         O  0.61378882  0.06694895  0.42049435    -0.73300
Cu23       Cu  0.56627687  0.04900865  0.38702089     1.04600
Cu24       Cu  0.59122390  0.08424010  0.41423600     1.04300
C25         C  0.60857314  0.04512765  0.41020498     0.93000
C26         C  0.54871314  0.08761539  0.38967997     0.92100
C27         C  0.61271635  0.09467319  0.36600625     0.84300
C28         C  0.54589098  0.03944245  0.43653352     0.90500
O29         O  0.05967015  0.20497868  0.93947924    -0.73200
O30         O  0.01229756  0.23648657  0.92484709    -0.74200
O31         O  0.06025246  0.24135497  0.90470853    -0.62800
O32         O  0.01184852  0.19932477  0.95842299    -0.71200
O33         O  0.03356433  0.23241969  0.98422948    -0.70800
O34         O  0.08454694  0.27415258  0.92993351    -0.62000
O35         O  0.03722941  0.26989798  0.94935968    -0.74500
O36         O  0.08215909  0.23803902  0.96518074    -0.73300
Cu37       Cu  0.03518739  0.21940867  0.93095174     1.04600
Cu38       Cu  0.06015061  0.25475481  0.95808533     1.04300
C39         C  0.07849040  0.21692776  0.95471209     0.93000
C40         C  0.01763791  0.25843519  0.93497506     0.92100
C41         C  0.08042749  0.26403222  0.90870313     0.84300
C42         C  0.01464727  0.20902027  0.97959744     0.90500
O43         O  0.87107605  0.40691643  0.91169317    -0.73200
O44         O  0.89824467  0.35558538  0.92556928    -0.74200
O45         O  0.90671282  0.40449889  0.94587682    -0.62800
O46         O  0.86169063  0.35779085  0.89225519    -0.71200
O47         O  0.89512022  0.37836638  0.86645009    -0.70800
O48         O  0.93967664  0.42745634  0.92025982    -0.62000
O49         O  0.93181520  0.37916192  0.90069060    -0.74500
O50         O  0.90437869  0.42801509  0.88583625    -0.73300
Cu51       Cu  0.88323998  0.38041974  0.91977320     1.04600
Cu52       Cu  0.91882114  0.40395768  0.89238153     1.04300
C53         C  0.88379345  0.42559681  0.89644837     0.93000
C54         C  0.91990607  0.35992772  0.91540816     0.92100
C55         C  0.93007303  0.42352064  0.94167704     0.84300
C56         C  0.87129543  0.36031454  0.87104379     0.90500
O57         O  0.27825825  0.08345783  0.58965182    -0.73200
O58         O  0.22909876  0.03232515  0.53845194    -0.74200
O59         O  0.24282074  0.08432573  0.55506559    -0.62800
O60         O  0.26531572  0.03210517  0.57200346    -0.71200
O61         O  0.23420199  0.01417759  0.60034800    -0.70800
O62         O  0.20951368  0.06588133  0.58130940    -0.62000
O63         O  0.19778577  0.01449022  0.56648722    -0.74500
O64         O  0.24541692  0.06549664  0.61623444    -0.73300
Cu65       Cu  0.25504921  0.05874614  0.56289976     1.04600
Cu66       Cu  0.22064652  0.03944565  0.59208582     1.04300
C67         C  0.26930240  0.08260930  0.61104894     0.93000
C68         C  0.20557170  0.01491769  0.54480946     0.92100
C69         C  0.22253430  0.08324482  0.56509792     0.84300
C70         C  0.25327832  0.01468148  0.58826597     0.90500
O71         O  0.37462247  0.89365829  0.64759321    -0.73200
O72         O  0.42614256  0.94405416  0.59673602    -0.74200
O73         O  0.37605800  0.93272989  0.61693962    -0.62800
O74         O  0.42584627  0.90581242  0.62870586    -0.71200
O75         O  0.40597748  0.87419150  0.60119240    -0.70800
O76         O  0.35543354  0.90236628  0.58855550    -0.62000
O77         O  0.40542024  0.91251714  0.56944662    -0.74500
O78         O  0.35541528  0.86330779  0.61896903    -0.73300
Cu79       Cu  0.40144590  0.92012179  0.62347157     1.04600
Cu80       Cu  0.37993509  0.88706577  0.59353942     1.04300
C81         C  0.35631772  0.87068643  0.64083315     0.93000
C82         C  0.42369251  0.93584031  0.57483760     0.92100
C83         C  0.35744747  0.92156097  0.60156503     0.84300
C84         C  0.42420759  0.88614968  0.61697031     0.90500
O85         O  0.39889579  0.23188936  0.73847398    -0.73200
O86         O  0.44383696  0.28078018  0.79090323    -0.74200
O87         O  0.43612768  0.23187115  0.77217821    -0.62800
O88         O  0.40569660  0.28078013  0.75837716    -0.71200
O89         O  0.37274123  0.25673881  0.78370746    -0.70800
O90         O  0.40354555  0.21082837  0.79866505    -0.62000
O91         O  0.41109790  0.26013373  0.81734432    -0.74500
O92         O  0.36655482  0.20871225  0.76453436    -0.73300
Cu93       Cu  0.42228046  0.25714156  0.76402051     1.04600
Cu94       Cu  0.38744835  0.23338295  0.79200417     1.04300
C95         C  0.37594860  0.21231011  0.74302791     0.93000
C96         C  0.43460628  0.27856856  0.81223016     0.92100
C97         C  0.42405854  0.21338870  0.78776061     0.84300
C98         C  0.38407365  0.27599190  0.76895579     0.90500
O99         O  0.21514585  0.39159452  0.72116834    -0.73200
O100        O  0.26091598  0.36045604  0.73755725    -0.74200
O101        O  0.21157028  0.35317009  0.75482523    -0.62800
O102        O  0.26551825  0.39988177  0.70443754    -0.71200
O103        O  0.28517734  0.43105263  0.73234869    -0.70800
O104        O  0.23317290  0.38460237  0.78203340    -0.62000
O105        O  0.28307032  0.39198446  0.76458464    -0.74500
O106        O  0.23556630  0.42333357  0.74847227    -0.73300
Cu107      Cu  0.23758407  0.37521248  0.72854355     1.04600
Cu108      Cu  0.25993276  0.40878741  0.75787726     1.04300
C109        C  0.21795065  0.41223316  0.73200056     0.93000
C110        C  0.27927921  0.37109739  0.75329027     0.92100
C111        C  0.21399633  0.36176694  0.77653222     0.84300
C112        C  0.28386977  0.42299754  0.71068232     0.90500
O113        O  0.73730933  0.53208140  0.26922245    -0.73200
O114        O  0.69122275  0.56464815  0.25420878    -0.74200
O115        O  0.73964900  0.57030969  0.23553027    -0.62800
O116        O  0.68889525  0.52600514  0.28774936    -0.71200
O117        O  0.71121681  0.55793843  0.31447309    -0.70800
O118        O  0.76139492  0.60260486  0.26199002    -0.62000
O119        O  0.71308720  0.59590240  0.28164592    -0.74500
O120        O  0.76001563  0.56502218  0.29494619    -0.73300
Cu121      Cu  0.71344098  0.54711099  0.26073054     1.04600
Cu122      Cu  0.73719666  0.58141895  0.28918699     1.04300
C123        C  0.75628720  0.54393026  0.28428952     0.93000
C124        C  0.69488817  0.58530434  0.26577096     0.92100
C125        C  0.75865499  0.59345273  0.24050744     0.84300
C126        C  0.69191860  0.53503191  0.30928173     0.90500
O127        O  0.61123820  0.75324619  0.25128769    -0.73200
O128        O  0.56797695  0.70274729  0.19750956    -0.74200
O129        O  0.57257553  0.75014019  0.21838050    -0.62800
O130        O  0.60744364  0.70671156  0.22977732    -0.71200
O131        O  0.57668089  0.68188809  0.25655768    -0.70800
O132        O  0.54033495  0.72551274  0.24416221    -0.62000
O133        O  0.53683559  0.67876031  0.22445542    -0.74500
O134        O  0.57944195  0.72850242  0.27727659    -0.73300
Cu135      Cu  0.59089545  0.72907250  0.22334976     1.04600
Cu136      Cu  0.55726319  0.70282635  0.25158334     1.04300
C137        C  0.60184863  0.74887808  0.27282360     0.93000
C138        C  0.54555053  0.68265568  0.20281464     0.92100
C139        C  0.55109085  0.74484528  0.22922037     0.84300
C140        C  0.59768582  0.68729424  0.24453500     0.90500
O141        O  0.10889271  0.61994920  0.11799112    -0.73200
O142        O  0.06131779  0.56789913  0.06889298    -0.74200
O143        O  0.06864085  0.61731659  0.08709817    -0.62800
O144        O  0.10111547  0.57018602  0.10105410    -0.71200
O145        O  0.07065034  0.55003180  0.12955954    -0.70800
O146        O  0.03779765  0.59441909  0.11449799    -0.62000
O147        O  0.03107866  0.54560886  0.09696470    -0.74500
O148        O  0.07807923  0.60005109  0.14624413    -0.73300
Cu149      Cu  0.08608618  0.59450927  0.09272740     1.04600
Cu150      Cu  0.05342869  0.57176750  0.12279350     1.04300
C151        C  0.10072450  0.61894832  0.13958796     0.93000
C152        C  0.03875602  0.54859120  0.07491167     0.92100
C153        C  0.04785140  0.61303066  0.09893577     0.84300
C154        C  0.09073704  0.55272827  0.11778192     0.90500
O155        O  0.87989317  0.72951799  0.05220365    -0.73200
O156        O  0.92889273  0.70119202  0.06643455    -0.74200
O157        O  0.88039638  0.69317564  0.08600588    -0.62800
O158        O  0.92955861  0.73836301  0.03268225    -0.71200
O159        O  0.95034219  0.77135070  0.05879386    -0.70800
O160        O  0.90298516  0.72595614  0.11180038    -0.62000
O161        O  0.95211079  0.73456299  0.09158804    -0.74500
O162        O  0.90142615  0.76254717  0.07810537    -0.73300
Cu163      Cu  0.90392941  0.71448906  0.05838248     1.04600
Cu164      Cu  0.92744431  0.74973696  0.08601066     1.04300
C165        C  0.88268086  0.75026955  0.06285902     0.93000
C166        C  0.94814659  0.71321767  0.08111790     0.92100
C167        C  0.88418482  0.70251219  0.10748471     0.84300
C168        C  0.94786001  0.76197325  0.03750499     0.90500
O169        O  0.54070074  0.92223670  0.11739449    -0.73200
O170        O  0.46529593  0.89905375  0.13313556    -0.74200
O171        O  0.50426373  0.88646409  0.15128362    -0.62800
O172        O  0.50203627  0.93396344  0.09863695    -0.71200
O173        O  0.48742082  0.90037446  0.07289206    -0.70800
O174        O  0.49136400  0.85406123  0.12436122    -0.62000
O175        O  0.45133571  0.86502068  0.10787031    -0.74500
O176        O  0.52820421  0.89049531  0.08978232    -0.73300
Cu177      Cu  0.50346892  0.91151481  0.12605972     1.04600
Cu178      Cu  0.48912558  0.87630084  0.09782282     1.04300
C179        C  0.54648255  0.91040003  0.10109463     0.93000
C180        C  0.44643507  0.87874388  0.12301089     0.92100
C181        C  0.49860095  0.86279965  0.14579616     0.84300
C182        C  0.49403751  0.92441955  0.07745722     0.90500
O183        O  0.75017452  0.03755307  0.06040015    -0.73200
O184        O  0.82703252  0.08666710  0.04737961    -0.74200
O185        O  0.78751879  0.03669891  0.02801441    -0.62800
O186        O  0.78999473  0.08683789  0.08038161    -0.71200
O187        O  0.80031509  0.06479854  0.10688507    -0.70800
O188        O  0.79899350  0.01632890  0.05539661    -0.62000
O189        O  0.83842574  0.06553876  0.07403672    -0.74500
O190        O  0.76026567  0.01582429  0.08742784    -0.73300
Cu191      Cu  0.78830552  0.06268811  0.05309607     1.04600
Cu192      Cu  0.79983256  0.03987657  0.08188505     1.04300
C193        C  0.74288849  0.01875788  0.07567125     0.93000
C194        C  0.84481825  0.08413760  0.05860653     0.92100
C195        C  0.79286598  0.01849747  0.03374303     0.84300
C196        C  0.79594869  0.08374785  0.10195920     0.90500
O197        O  0.79109277  0.23214754  0.26924751    -0.73200
O198        O  0.86944217  0.27952497  0.25464315    -0.74200
O199        O  0.82742557  0.23195698  0.23451251    -0.62800
O200        O  0.83259301  0.27996574  0.28849077    -0.71200
O201        O  0.84429704  0.25789012  0.31371481    -0.70800
O202        O  0.83561257  0.20706490  0.25949717    -0.62000
O203        O  0.87817213  0.25421713  0.27860855    -0.74500
O204        O  0.80163769  0.20937778  0.29480031    -0.73300
Cu205      Cu  0.82978671  0.25669938  0.26081512     1.04600
Cu206      Cu  0.84025009  0.23134273  0.28757868     1.04300
C207        C  0.78425678  0.21325013  0.28443976     0.93000
C208        C  0.88609946  0.27394183  0.26434633     0.92100
C209        C  0.83022537  0.21179275  0.23828340     0.84300
C210        C  0.83977593  0.27699092  0.30946904     0.90500
O211        O  0.17958630  0.43250331  0.24990984    -0.73200
O212        O  0.10027375  0.39875156  0.26218909    -0.74200
O213        O  0.14269206  0.39325916  0.28248339    -0.62800
O214        O  0.13770680  0.43859306  0.23066620    -0.71200
O215        O  0.12844056  0.40717368  0.20339357    -0.70800
O216        O  0.13637318  0.36235195  0.25561491    -0.62000
O217        O  0.09386954  0.36706764  0.23610202    -0.74500
O218        O  0.17106161  0.40141145  0.22238438    -0.73300
Cu219      Cu  0.14031759  0.41684596  0.25730672     1.04600
Cu220      Cu  0.13219377  0.38345266  0.22843580     1.04300
C221        C  0.18751460  0.42211474  0.23381777     0.93000
C222        C  0.08467664  0.37727225  0.25100246     0.92100
C223        C  0.14061735  0.37082971  0.27744718     0.84300
C224        C  0.13212043  0.43019041  0.20896571     0.90500
O225        O  0.16470414  0.24180928  0.40168847    -0.73200
O226        O  0.17307347  0.19641487  0.45132969    -0.74200
O227        O  0.12976772  0.20249506  0.43529767    -0.62800
O228        O  0.20860999  0.23641058  0.41858334    -0.71200
O229        O  0.21641011  0.26815011  0.44503268    -0.70800
O230        O  0.14029913  0.23253472  0.46427592    -0.62000
O231        O  0.18487824  0.22818546  0.47877656    -0.74500
O232        O  0.17189893  0.27200720  0.42962632    -0.73300
Cu233      Cu  0.16870920  0.21819045  0.42569488     1.04600
Cu234      Cu  0.17865568  0.25127222  0.45533779     1.04300
C235        C  0.16658056  0.26391266  0.40772630     0.93000
C236        C  0.18064586  0.20514461  0.47270463     0.92100
C237        C  0.12299559  0.21211974  0.45302683     0.84300
C238        C  0.22486875  0.25802222  0.42928705     0.90500
O239        O  0.48213512  0.40354767  0.44871625    -0.73200
O240        O  0.47805570  0.35658951  0.39352634    -0.74200
O241        O  0.51931155  0.40293652  0.41494399    -0.62800
O242        O  0.44006160  0.35652131  0.42596771    -0.71200
O243        O  0.43285288  0.38280053  0.40186002    -0.70800
O244        O  0.51054153  0.42744803  0.38990439    -0.62000
O245        O  0.46853675  0.38040943  0.36834383    -0.74500
O246        O  0.47458335  0.42889335  0.42379145    -0.73300
Cu247      Cu  0.48015589  0.37906971  0.42176343     1.04600
Cu248      Cu  0.47142586  0.40578273  0.39511494     1.04300
C249        C  0.47945523  0.42385303  0.44509302     0.93000
C250        C  0.47209821  0.36067638  0.37239151     0.92100
C251        C  0.52715864  0.42243674  0.40031365     0.84300
C252        C  0.42403108  0.36230161  0.41524867     0.90500
O253        O  0.53256856  0.61759088  0.59326965    -0.73200
O254        O  0.45598467  0.56716246  0.61071904    -0.74200
O255        O  0.49554664  0.61771533  0.62724435    -0.62800
O256        O  0.49239931  0.56713568  0.57617993    -0.71200
O257        O  0.50618674  0.54776389  0.60235845    -0.70800
O258        O  0.50876820  0.59869086  0.65443994    -0.62000
O259        O  0.46957648  0.54738871  0.63682843    -0.74500
O260        O  0.54510682  0.59835263  0.62090652    -0.73300
Cu261      Cu  0.49366705  0.59305229  0.60091148     1.04600
Cu262      Cu  0.50780407  0.57229747  0.62955905     1.04300
C263        C  0.55085292  0.61611880  0.60486314     0.93000
C264        C  0.45092611  0.54921539  0.62650407     0.92100
C265        C  0.50302827  0.61662969  0.64868690     0.84300
C266        C  0.49859766  0.54937809  0.58098693     0.90500
O267        O  0.76412199  0.73342334  0.58547727    -0.73200
O268        O  0.84145496  0.75914008  0.56957356    -0.74200
O269        O  0.80197506  0.77029245  0.55228588    -0.62800
O270        O  0.80415830  0.72317287  0.60342451    -0.71200
O271        O  0.79154826  0.69021632  0.57724556    -0.70800
O272        O  0.78937829  0.73829115  0.52499290    -0.62000
O273        O  0.82834709  0.72611468  0.54332042    -0.74500
O274        O  0.75252896  0.70162780  0.55812489    -0.73300
Cu275      Cu  0.80334068  0.74762570  0.57861412     1.04600
Cu276      Cu  0.79005428  0.71295291  0.54997557     1.04300
C277        C  0.74614956  0.71352413  0.57391129     0.93000
C278        C  0.84691013  0.74615135  0.55404291     0.92100
C279        C  0.79511045  0.76191972  0.53072505     0.84300
C280        C  0.79852176  0.69944142  0.59868354     0.90500
O281        O  0.80134069  0.57532930  0.79279601    -0.73200
O282        O  0.87707383  0.60717660  0.77368858    -0.74200
O283        O  0.83290649  0.61065534  0.75587598    -0.62800
O284        O  0.84541692  0.57055091  0.80987219    -0.71200
O285        O  0.83401038  0.53696996  0.78454380    -0.70800
O286        O  0.82334677  0.57694090  0.73132269    -0.62000
O287        O  0.86821496  0.57358449  0.74919834    -0.74500
O288        O  0.79019091  0.54129929  0.76804317    -0.73300
Cu289      Cu  0.83953901  0.59208314  0.78390083     1.04600
Cu290      Cu  0.82860610  0.55606699  0.75733932     1.04300
C291        C  0.78378574  0.55356083  0.78358277     0.93000
C292        C  0.88499617  0.59560843  0.75898912     0.92100
C293        C  0.82593720  0.59981316  0.73499104     0.84300
C294        C  0.84142502  0.54717786  0.80546365     0.90500
O295        O  0.09183721  0.70752426  0.73123147    -0.73200
O296        O  0.16824891  0.75225381  0.71444646    -0.74200
O297        O  0.12528265  0.70423770  0.69527762    -0.62800
O298        O  0.13461993  0.75414392  0.75106046    -0.71200
O299        O  0.14306176  0.72892120  0.77530053    -0.70800
O300        O  0.13723877  0.68177324  0.71975762    -0.62000
O301        O  0.17908839  0.72919270  0.73933718    -0.74500
O302        O  0.10048987  0.68155390  0.75437012    -0.73300
Cu303      Cu  0.12969546  0.73037496  0.72215151     1.04600
Cu304      Cu  0.14032818  0.70454462  0.74809627     1.04300
C305        C  0.08388151  0.68746337  0.74504323     0.93000
C306        C  0.18573735  0.74805995  0.72412119     0.92100
C307        C  0.13000177  0.68516135  0.69894566     0.84300
C308        C  0.14003643  0.74907060  0.77216935     0.90500
O309        O  0.43453081  0.05881794  0.92757802    -0.73200
O310        O  0.51360871  0.09257038  0.91354342    -0.74200
O311        O  0.47123678  0.09768044  0.89480569    -0.62800
O312        O  0.47795065  0.05431097  0.94751470    -0.71200
O313        O  0.46944286  0.02177085  0.92176043    -0.70800
O314        O  0.46229885  0.06554764  0.86833085    -0.62000
O315        O  0.50463843  0.05973105  0.88790450    -0.74500
O316        O  0.42731383  0.02673385  0.90170259    -0.73300
Cu317      Cu  0.47458721  0.07691897  0.92186102     1.04600
Cu318      Cu  0.46567388  0.04236794  0.89402344     1.04300
C319        C  0.41849658  0.03731066  0.91661115     0.93000
C320        C  0.52128328  0.08130474  0.89812091     0.92100
C321        C  0.46576439  0.08858645  0.87334038     0.84300
C322        C  0.47496669  0.03137561  0.94316172     0.90500
O323        O  0.20317539  0.94231026  0.92401632    -0.73200
O324        O  0.12464945  0.89662639  0.93867963    -0.74200
O325        O  0.16615975  0.94513360  0.95600492    -0.62800
O326        O  0.16069855  0.89341738  0.90550372    -0.71200
O327        O  0.16878496  0.87017668  0.93246419    -0.70800
O328        O  0.17737805  0.92480552  0.98361575    -0.62000
O329        O  0.13478045  0.87535410  0.96628351    -0.74500
O330        O  0.21165880  0.91860690  0.95024222    -0.73300
Cu331      Cu  0.16339837  0.92012008  0.93007403     1.04600
Cu332      Cu  0.17349018  0.89648797  0.95914613     1.04300
C333        C  0.21973249  0.93742540  0.93492557     0.93000
C334        C  0.11759916  0.87881487  0.95501000     0.92100
C335        C  0.17267350  0.94342090  0.97762830     0.84300
C336        C  0.16326953  0.87338182  0.91073065     0.90500
O337        O  0.61789280  0.53161351  0.93005670    -0.73200
O338        O  0.57177963  0.45329288  0.91371288    -0.74200
O339        O  0.61970167  0.49595280  0.89585717    -0.62800
O340        O  0.56991349  0.48834104  0.94920037    -0.71200
O341        O  0.54595947  0.49749546  0.92397357    -0.70800
O342        O  0.59778154  0.50724761  0.87008955    -0.62000
O343        O  0.54910150  0.46408304  0.88833312    -0.74500
O344        O  0.59321976  0.54043429  0.90534215    -0.73300
Cu345      Cu  0.59560634  0.49194397  0.92312391     1.04600
Cu346      Cu  0.57071763  0.50262446  0.89602667     1.04300
C347        C  0.61250265  0.54829737  0.92009097     0.93000
C348        C  0.55311396  0.44658262  0.89828216     0.92100
C349        C  0.61706720  0.50312611  0.87475540     0.84300
C350        C  0.54995289  0.49144210  0.94521282     0.90500
O351        O  0.76032751  0.84212616  0.93821183    -0.73200
O352        O  0.72930664  0.76327032  0.92578127    -0.74200
O353        O  0.72260965  0.80522399  0.90505124    -0.62800
O354        O  0.76763621  0.80120531  0.95790715    -0.71200
O355        O  0.73532039  0.79086622  0.98453814    -0.70800
O356        O  0.69059345  0.79747166  0.93117224    -0.62000
O357        O  0.69669087  0.75551361  0.95125936    -0.74500
O358        O  0.72806351  0.83267303  0.96473481    -0.73300
Cu359      Cu  0.74603664  0.80320816  0.93077836     1.04600
Cu360      Cu  0.71157197  0.79380849  0.95886470     1.04300
C361        C  0.74877695  0.84959138  0.95351692     0.93000
C362        C  0.70792964  0.74697998  0.93678751     0.92100
C363        C  0.69991741  0.80281947  0.90961642     0.84300
C364        C  0.75868481  0.79518021  0.97941629     0.90500
O365        O  0.75476176  0.17623517  0.79177057    -0.73200
O366        O  0.71113153  0.10054338  0.77252658    -0.74200
O367        O  0.75870096  0.14390511  0.75545428    -0.62800
O368        O  0.70581896  0.13275426  0.80843977    -0.71200
O369        O  0.68436387  0.14499434  0.78304228    -0.70800
O370        O  0.73552057  0.15394770  0.73009612    -0.62000
O371        O  0.68704351  0.11014577  0.74779011    -0.74500
O372        O  0.73303317  0.18826610  0.76649001    -0.73300
Cu373      Cu  0.73333262  0.13804461  0.78295375     1.04600
Cu374      Cu  0.70919210  0.14975467  0.75593997     1.04300
C375        C  0.75129971  0.19427926  0.78224969     0.93000
C376        C  0.69243130  0.09319171  0.75721491     0.92100
C377        C  0.75516394  0.15034353  0.73422529     0.84300
C378        C  0.68668250  0.13714231  0.80395612     0.90500
O379        O  0.54209378  0.84160767  0.72035397    -0.73200
O380        O  0.58359351  0.83565373  0.77513646    -0.74200
O381        O  0.58074363  0.87915163  0.75240062    -0.62800
O382        O  0.54559927  0.79906426  0.74142318    -0.71200
O383        O  0.57850001  0.80638691  0.71643682    -0.70800
O384        O  0.61311363  0.88443401  0.72772908    -0.62000
O385        O  0.61608487  0.84153985  0.75035851    -0.74500
O386        O  0.57447796  0.84906768  0.69461368    -0.73300
Cu387      Cu  0.56195942  0.83869268  0.74829606     1.04600
Cu388      Cu  0.59666697  0.84558727  0.72144027     1.04300
C389        C  0.55158488  0.84637459  0.69900293     0.93000
C390        C  0.60598935  0.83697838  0.77164561     0.92100
C391        C  0.60241297  0.89442744  0.74118589     0.84300
C392        C  0.55677727  0.79036433  0.72687930     0.90500
O393        O  0.93870302  0.17622957  0.53316037    -0.73200
O394        O  0.88426814  0.17498782  0.58099818    -0.74200
O395        O  0.93649615  0.21342807  0.56462009    -0.62800
O396        O  0.88650492  0.13837893  0.54801611    -0.71200
O397        O  0.90254205  0.12415970  0.57721472    -0.70800
O398        O  0.95403654  0.20135536  0.59420225    -0.62000
O399        O  0.90222168  0.16220531  0.60952265    -0.74500
O400        O  0.95494798  0.16293067  0.56278346    -0.73300
Cu401      Cu  0.91080009  0.17619419  0.55577853     1.04600
Cu402      Cu  0.92896293  0.16218882  0.58698840     1.04300
C403        C  0.95571985  0.16997039  0.54080720     0.93000
C404        C  0.88477064  0.16815707  0.60295970     0.92100
C405        C  0.95361636  0.21946993  0.58132377     0.84300
C406        C  0.88674724  0.11947072  0.55942069     0.90500
O407        O  0.07949491  0.46038209  0.64584507    -0.73200
O408        O  0.03518890  0.46476910  0.59074941    -0.74200
O409        O  0.04334391  0.42441244  0.61235404    -0.62800
O410        O  0.07028973  0.50085774  0.62533942    -0.71200
O411        O  0.10447545  0.51279921  0.60059639    -0.70800
O412        O  0.07612914  0.43404531  0.58648996    -0.62000
O413        O  0.06908516  0.47581323  0.56596048    -0.74500
O414        O  0.11274251  0.47174841  0.62006604    -0.73300
Cu415      Cu  0.05597389  0.46230241  0.61942719     1.04600
Cu416      Cu  0.09177040  0.47395649  0.59235633     1.04300
C417        C  0.10302249  0.46486585  0.64125973     0.93000
C418        C  0.04555091  0.47151952  0.56962217     0.92100
C419        C  0.05549737  0.41688561  0.59797140     0.84300
C420        C  0.09106461  0.51894218  0.61506555     0.90500
O421        O  0.91375489  0.46447550  0.38055523    -0.73200
O422        O  0.94324046  0.54217191  0.39130205    -0.74200
O423        O  0.95183725  0.50240110  0.41261795    -0.62800
O424        O  0.90439835  0.50431537  0.35968762    -0.71200
O425        O  0.87271977  0.49446357  0.38693156    -0.70800
O426        O  0.92002079  0.49382328  0.43924502    -0.62000
O427        O  0.91139419  0.53420841  0.41773637    -0.74500
O428        O  0.88167105  0.45499282  0.40725922    -0.73300
Cu429      Cu  0.92937280  0.50361789  0.38510151     1.04600
Cu430      Cu  0.89540799  0.49411128  0.41378914     1.04300
C431        C  0.89319424  0.44748267  0.39195318     0.93000
C432        C  0.93211007  0.55066943  0.40596172     0.92100
C433        C  0.94316661  0.49754553  0.43439091     0.84300
C434        C  0.88101890  0.49964039  0.36517610     0.90500
O435        O  0.08605946  0.83229124  0.46465729    -0.73200
O436        O  0.04388259  0.75651099  0.44420723    -0.74200
O437        O  0.09014110  0.80177712  0.42635490    -0.62800
O438        O  0.03864272  0.78710598  0.48193769    -0.71200
O439        O  0.01573212  0.79914383  0.45807270    -0.70800
O440        O  0.06483447  0.81098234  0.40294419    -0.62000
O441        O  0.01786328  0.76561845  0.42164685    -0.74500
O442        O  0.06265623  0.84344815  0.44052246    -0.73300
Cu443      Cu  0.06554160  0.79408405  0.45512416     1.04600
Cu444      Cu  0.03942454  0.80512433  0.42994039     1.04300
C445        C  0.08137325  0.84982213  0.45581390     0.93000
C446        C  0.02406977  0.74886182  0.43011074     0.92100
C447        C  0.08549362  0.80881264  0.40581180     0.84300
C448        C  0.01905134  0.79104406  0.47845273     0.90500
O449        O  0.40559619  0.13398424  0.31174862    -0.73200
O450        O  0.36053433  0.14108588  0.25890457    -0.74200
O451        O  0.36720680  0.09953205  0.27767437    -0.62800
O452        O  0.39770066  0.17595566  0.29351546    -0.71200
O453        O  0.43065738  0.18676537  0.26748329    -0.70800
O454        O  0.39967903  0.10839092  0.25163413    -0.62000
O455        O  0.39341737  0.15083939  0.23318128    -0.74500
O456        O  0.43774588  0.14497465  0.28480322    -0.73300
Cu457      Cu  0.38168153  0.13733095  0.28644424     1.04600
Cu458      Cu  0.41647915  0.14809375  0.25835573     1.04300
C459        C  0.42895344  0.13846962  0.30628251     0.93000
C460        C  0.37013102  0.14691321  0.23746197     0.92100
C461        C  0.37811052  0.09170515  0.26215091     0.84300
C462        C  0.41876407  0.19346334  0.28315382     0.90500
O463        O  0.20682537  0.84536222  0.24453384    -0.73200
O464        O  0.25895726  0.85067399  0.19222508    -0.74200
O465        O  0.20934309  0.80979313  0.21052717    -0.62800
O466        O  0.25549283  0.88634288  0.22551044    -0.71200
O467        O  0.27884557  0.87706518  0.25146340    -0.70800
O468        O  0.23082947  0.79895285  0.23730893    -0.62000
O469        O  0.27941757  0.83909133  0.21940574    -0.74500
O470        O  0.22970638  0.83582213  0.27070182    -0.73300
Cu471      Cu  0.23188160  0.84840951  0.21724752     1.04600
Cu472      Cu  0.25541226  0.83742980  0.24571890     1.04300
C473        C  0.21022559  0.83950124  0.26606670     0.93000
C474        C  0.27724787  0.84534994  0.19782046     0.92100
C475        C  0.21284613  0.79235066  0.22123267     0.84300
C476        C  0.27454454  0.89398086  0.24049129     0.90500
O477        O  0.19423486  0.16215967  0.05483871    -0.73200
O478        O  0.24035958  0.15714092  0.10522433    -0.74200
O479        O  0.23251379  0.19906148  0.08762772    -0.62800
O480        O  0.20301216  0.12092628  0.07138747    -0.71200
O481        O  0.23596319  0.13250002  0.04520186    -0.70800
O482        O  0.26327917  0.20923892  0.05938801    -0.62000
O483        O  0.27301649  0.16901319  0.07875786    -0.74500
O484        O  0.22548858  0.17288061  0.02697603    -0.73300
Cu485      Cu  0.21645204  0.15943866  0.08073228     1.04600
Cu486      Cu  0.25055543  0.17123767  0.05164459     1.04300
C487        C  0.20239956  0.16856350  0.03316294     0.93000
C488        C  0.26384904  0.16211955  0.10024933     0.92100
C489        C  0.25225108  0.21642702  0.07537666     0.84300
C490        C  0.21527639  0.11460761  0.05577594     0.90500
O491        O  0.37003087  0.41981000  0.11777376    -0.73200
O492        O  0.42054234  0.49572405  0.13272790    -0.74200
O493        O  0.36929692  0.45711555  0.15026004    -0.62800
O494        O  0.42084122  0.45876407  0.09959135    -0.71200
O495        O  0.40153540  0.47180120  0.07262021    -0.70800
O496        O  0.35009854  0.46912657  0.12222581    -0.62000
O497        O  0.40093745  0.50887307  0.10608669    -0.74500
O498        O  0.35089995  0.43142598  0.08933940    -0.73300
Cu499      Cu  0.39583124  0.45742793  0.12603754     1.04600
Cu500      Cu  0.37518089  0.47071404  0.09658994     1.04300
C501        C  0.35246774  0.41341646  0.10139468     0.93000
C502        C  0.41896079  0.51428699  0.12192950     0.92100
C503        C  0.35138658  0.46270843  0.14403078     0.84300
C504        C  0.41945735  0.46604084  0.07804635     0.90500
C505        C  0.33403827  0.38486889  0.09686756    -0.01600
C506        C  0.32447845  0.37529979  0.07367164    -0.09600
C507        C  0.30912487  0.34798005  0.06937421    -0.18400
C508        C  0.30250847  0.32935038  0.08836663     0.04000
C509        C  0.31094071  0.33938549  0.11207637     0.18200
C510        C  0.32681381  0.36675908  0.11600193    -0.19800
C511        C  0.30383838  0.32203821  0.13174977    -0.21100
C512        C  0.28898966  0.29478457  0.12838346    -0.19600
C513        C  0.28149359  0.28409047  0.10517405     0.19600
C514        C  0.28822514  0.30120634  0.08477037     0.01700
C515        C  0.28132021  0.28935477  0.06164034    -0.14400
C516        C  0.26913376  0.26185608  0.05890940    -0.12100
C517        C  0.26261445  0.24514713  0.07904588     0.01200
C518        C  0.26820931  0.25634600  0.10218473    -0.24300
H519        H  0.32960753  0.38893081  0.05865621     0.09200
H520        H  0.30274046  0.34202594  0.05102172     0.12800
H521        H  0.33369114  0.37404529  0.13411736     0.11500
H522        H  0.30996111  0.32960996  0.14990694     0.12700
H523        H  0.28400130  0.28194179  0.14400785     0.11700
H524        H  0.28598065  0.30085574  0.04526764     0.08800
H525        H  0.26497994  0.25354610  0.04084566     0.12100
H526        H  0.26356387  0.24351294  0.11779396     0.14000
C527        C  0.28011660  0.15964914  0.11970056    -0.01600
C528        C  0.30651662  0.16635299  0.11560671    -0.09600
C529        C  0.32177143  0.16424941  0.13410639    -0.18400
C530        C  0.31104798  0.15527668  0.15749096     0.04000
C531        C  0.28411901  0.14804828  0.16141622     0.18200
C532        C  0.26907044  0.15035227  0.14269326    -0.19800
C533        C  0.27232874  0.13862078  0.18404304    -0.21100
C534        C  0.28679553  0.13644061  0.20303287    -0.19600
C535        C  0.31349825  0.14379162  0.19996247     0.19600
C536        C  0.32600307  0.15327489  0.17711969     0.01700
C537        C  0.35300086  0.16054600  0.17500512    -0.14400
C538        C  0.36692390  0.15847963  0.19460709    -0.12100
C539        C  0.35464381  0.14915452  0.21712673     0.01200
C540        C  0.32781935  0.14181397  0.21964651    -0.24300
H541        H  0.31552222  0.17339939  0.09803350     0.09200
H542        H  0.34190117  0.16981345  0.12948872     0.12800
H543        H  0.24858568  0.14484968  0.14612610     0.11500
H544        H  0.25174573  0.13294553  0.18710705     0.12700
H545        H  0.27705856  0.12911932  0.22031191     0.11700
H546        H  0.36403878  0.16803834  0.15845581     0.08800
H547        H  0.38761068  0.16436150  0.19202830     0.12100
H548        H  0.31802274  0.13446817  0.23690679     0.14000
C549        C  0.36471435  0.06309227  0.25645068    -0.01600
C550        C  0.37877701  0.04966839  0.25206366    -0.09600
C551        C  0.36529598  0.02198931  0.24937048    -0.18400
C552        C  0.33723980  0.00706850  0.25059335     0.04000
C553        C  0.32324860  0.02122306  0.25357941     0.18200
C554        C  0.33699074  0.04872705  0.25681800    -0.19800
C555        C  0.29554495  0.00789794  0.25353113    -0.21100
C556        C  0.28124440  0.98064537  0.25061564    -0.19600
C557        C  0.29427586  0.96594016  0.24847359     0.19600
C558        C  0.32244299  0.97874703  0.24888244     0.01700
C559        C  0.33434613  0.96253284  0.24801968    -0.14400
C560        C  0.31884251  0.93486132  0.24630615    -0.12100
C561        C  0.29119621  0.92269476  0.24486796     0.01200
C562        C  0.27912884  0.93837699  0.24600487    -0.24300
H563        H  0.40023209  0.06046828  0.25154176     0.09200
H564        H  0.37725746  0.01278449  0.24630684     0.12800
H565        H  0.32597884  0.05910360  0.25972076     0.11500
H566        H  0.28483292  0.01866776  0.25562046     0.12700
H567        H  0.25978940  0.97094168  0.25042078     0.11700
H568        H  0.35552417  0.97068930  0.24887812     0.08800
H569        H  0.32851467  0.92301237  0.24535573     0.12100
H570        H  0.25769193  0.92896720  0.24513622     0.14000
C571        C  0.10399440  0.81461586  0.38512342    -0.01600
C572        C  0.10195160  0.82739066  0.36437604    -0.09600
C573        C  0.11895479  0.83259036  0.34461295    -0.18400
C574        C  0.13860779  0.82494713  0.34481963     0.04000
C575        C  0.14076671  0.81226998  0.36602933     0.18200
C576        C  0.12368793  0.80737473  0.38583286    -0.19800
C577        C  0.15986693  0.80432713  0.36735457    -0.21100
C578        C  0.17689608  0.80860414  0.34809494    -0.19600
C579        C  0.17524698  0.82086123  0.32693076     0.19600
C580        C  0.15610068  0.82921764  0.32483085     0.01700
C581        C  0.15526721  0.84117625  0.30275017    -0.14400
C582        C  0.17266224  0.84452461  0.28365480    -0.12100
C583        C  0.19158499  0.83634167  0.28599716     0.01200
C584        C  0.19266926  0.82459540  0.30779464    -0.24300
H585        H  0.08711723  0.83350200  0.36338673     0.09200
H586        H  0.11617735  0.84253427  0.32940706     0.12800
H587        H  0.12552824  0.79753133  0.40174492     0.11500
H588        H  0.16162624  0.79465607  0.38342006     0.12700
H589        H  0.19143370  0.80214567  0.34974079     0.11700
H590        H  0.14129684  0.84798619  0.29965216     0.08800
H591        H  0.17136146  0.85366153  0.26704886     0.12100
H592        H  0.20702335  0.81794421  0.30986491     0.14000
C593        C  0.94388511  0.57979790  0.40915900    -0.01600
C594        C  0.92867015  0.59128450  0.41645002    -0.09600
C595        C  0.94020425  0.61892732  0.41875579    -0.18400
C596        C  0.96759937  0.63597090  0.41431169     0.04000
C597        C  0.98288413  0.62402376  0.40732548     0.18200
C598        C  0.97092603  0.59644923  0.40443090    -0.19800
C599        C  0.01020503  0.63957945  0.40359209    -0.21100
C600        C  0.02293636  0.66677783  0.40716839    -0.19600
C601        C  0.00859401  0.67928676  0.41390804     0.19600
C602        C  0.98061627  0.66427945  0.41699941     0.01700
C603        C  0.96714360  0.67837463  0.42269796    -0.14400
C604        C  0.98103855  0.70602081  0.42584559    -0.12100
C605        C  0.00871614  0.72033479  0.42386640     0.01200
C606        C  0.02226168  0.70679497  0.41778761    -0.24300
H607        H  0.90770413  0.57888115  0.42008130     0.09200
H608        H  0.92733805  0.62639768  0.42442209     0.12800
H609        H  0.98297096  0.58781663  0.39896225     0.11500
H610        H  0.02194159  0.63056568  0.39829466     0.12700
H611        H  0.04421327  0.67814414  0.40459188     0.11700
H612        H  0.94590937  0.66853168  0.42483045     0.08800
H613        H  0.97021304  0.71611269  0.43070291     0.12100
H614        H  0.04368266  0.71782158  0.41611032     0.14000
C615        C  0.95956396  0.49554060  0.45411007    -0.01600
C616        C  0.98621997  0.50287554  0.45029610    -0.09600
C617        C  0.00118698  0.49977137  0.46855341    -0.18400
C618        C  0.98986258  0.48890359  0.49135460     0.04000
C619        C  0.96297956  0.48195898  0.49525618     0.18200
C620        C  0.94827052  0.48540636  0.47683635    -0.19800
C621        C  0.95075017  0.47130817  0.51746929    -0.21100
C622        C  0.96456332  0.46727064  0.53595291    -0.19600
C623        C  0.99098558  0.47365320  0.53274222     0.19600
C624        C  0.00404822  0.48450895  0.51037611     0.01700
C625        C  0.03062812  0.49024893  0.50804792    -0.14400
C626        C  0.04363683  0.48560152  0.52709041    -0.12100
C627        C  0.03082915  0.47517967  0.54924993     0.01200
C628        C  0.00439027  0.46921641  0.55184102    -0.24300
H629        H  0.99557741  0.51095973  0.43304284     0.09200
H630        H  0.02152261  0.50590366  0.46421074     0.12800
H631        H  0.92769690  0.47964623  0.48012677     0.11500
H632        H  0.93026364  0.46597592  0.52057125     0.12700
H633        H  0.95443234  0.45897196  0.55289179     0.11700
H634        H  0.04192657  0.49833706  0.49171045     0.08800
H635        H  0.06405749  0.49051116  0.52444968     0.12100
H636        H  0.99417483  0.46113537  0.56879840     0.14000
C637        C  0.97331953  0.24774288  0.58460588    -0.01600
C638        C  0.98587136  0.26306507  0.56415523    -0.09600
C639        C  0.00220982  0.29046206  0.56587352    -0.18400
C640        C  0.00591709  0.30367378  0.58819851     0.04000
C641        C  0.99333379  0.28794449  0.60902003     0.18200
C642        C  0.97773967  0.26014879  0.60715593    -0.19800
C643        C  0.99539942  0.30016589  0.63134604    -0.21100
C644        C  0.00864269  0.32764502  0.63325967    -0.19600
C645        C  0.02080999  0.34362716  0.61303896     0.19600
C646        C  0.02053915  0.33194954  0.59039923     0.01700
C647        C  0.03444605  0.34916683  0.57091101    -0.14400
C648        C  0.04674651  0.37676661  0.57351335    -0.12100
C649        C  0.04530579  0.38801087  0.59543903     0.01200
C650        C  0.03278608  0.37128390  0.61524193    -0.24300
H651        H  0.98263006  0.25375838  0.54654998     0.09200
H652        H  0.01074707  0.30084752  0.54923785     0.12800
H653        H  0.96772899  0.24837054  0.62295638     0.11500
H654        H  0.98593886  0.28840621  0.64729104     0.12700
H655        H  0.00911453  0.33647586  0.65065716     0.11700
H656        H  0.03605099  0.34190004  0.55341578     0.08800
H657        H  0.05660334  0.38930233  0.55808880     0.12100
H658        H  0.03214418  0.37987638  0.63248170     0.14000
C659        C  0.77372286  0.15343633  0.71424918    -0.01600
C660        C  0.76831515  0.15726915  0.69033172    -0.09600
C661        C  0.78554499  0.15987458  0.67141723    -0.18400
C662        C  0.80903387  0.15887932  0.67580440     0.04000
C663        C  0.81443517  0.15506837  0.70011365     0.18200
C664        C  0.79687074  0.15231790  0.71889830    -0.19800
C665        C  0.83741305  0.15406807  0.70563339    -0.21100
C666        C  0.85524607  0.15679588  0.68758040    -0.19600
C667        C  0.85055878  0.16051289  0.66348699     0.19600
C668        C  0.82741591  0.16158723  0.65711037     0.01700
C669        C  0.82385010  0.16532147  0.63235245    -0.14400
C670        C  0.84250306  0.16786314  0.61480060    -0.12100
C671        C  0.86521559  0.16666816  0.62127921     0.01200
C672        C  0.86899837  0.16305386  0.64574414    -0.24300
H673        H  0.75054342  0.15812282  0.68612836     0.09200
H674        H  0.77997458  0.16269941  0.65356673     0.12800
H675        H  0.80136255  0.14940353  0.73727385     0.11500
H676        H  0.84166996  0.15119433  0.72409622     0.12700
H677        H  0.87286813  0.15595061  0.69252005     0.11700
H678        H  0.80679777  0.16624867  0.62599001     0.08800
H679        H  0.83894806  0.17044159  0.59605563     0.12100
H680        H  0.88646672  0.16212385  0.65112467     0.14000
C681        C  0.61546768  0.92389462  0.74301977    -0.01600
C682        C  0.64194020  0.93937331  0.73561938    -0.09600
C683        C  0.65462807  0.96700545  0.73597699    -0.18400
C684        C  0.64123122  0.98048962  0.74366387     0.04000
C685        C  0.61418760  0.96489535  0.75062089     0.18200
C686        C  0.60167393  0.93689095  0.75051520    -0.19800
C687        C  0.59982737  0.97739766  0.75755436    -0.21100
C688        C  0.61181814  0.00497419  0.75814112    -0.19600
C689        C  0.63865725  0.02089365  0.75221247     0.19600
C690        C  0.65375571  0.00883163  0.74486952     0.01700
C691        C  0.68097426  0.02566049  0.73981644    -0.14400
C692        C  0.69283307  0.05304372  0.74284634    -0.12100
C693        C  0.67805937  0.06485166  0.75034522     0.01200
C694        C  0.65078665  0.04875649  0.75447077    -0.24300
H695        H  0.65309207  0.93004764  0.72945462     0.09200
H696        H  0.67490569  0.97720840  0.72987333     0.12800
H697        H  0.58105119  0.92523242  0.75581179     0.11500
H698        H  0.57915012  0.96574805  0.76266032     0.12700
H699        H  0.60012234  0.01391416  0.76377162     0.11700
H700        H  0.69392400  0.01825855  0.73434529     0.08800
H701        H  0.71398311  0.06513372  0.73983778     0.12100
H702        H  0.63937351  0.05776114  0.76079637     0.14000
C703        C  0.61971516  0.83257962  0.79245317    -0.01600
C704        C  0.60770345  0.82631488  0.81538277    -0.09600
C705        C  0.61973375  0.82125023  0.83499426    -0.18400
C706        C  0.64444811  0.82223546  0.83245351     0.04000
C707        C  0.65662607  0.82860027  0.80920823     0.18200
C708        C  0.64429328  0.83370731  0.78959605    -0.19800
C709        C  0.68101713  0.82968542  0.80560924    -0.21100
C710        C  0.69356735  0.82450523  0.82450185    -0.19600
C711        C  0.68215704  0.81818355  0.84758754     0.19600
C712        C  0.65748233  0.81704322  0.85200959     0.01700
C713        C  0.64708427  0.81081310  0.87580781    -0.14400
C714        C  0.66060321  0.80590867  0.89429155    -0.12100
C715        C  0.68491001  0.80697281  0.88981148     0.01200
C716        C  0.69545688  0.81312349  0.86629592    -0.24300
H717        H  0.58866928  0.82509964  0.81823947     0.09200
H718        H  0.60909197  0.81645780  0.85189363     0.12800
H719        H  0.65381522  0.83838559  0.77201020     0.11500
H720        H  0.69045564  0.83450710  0.78799352     0.12700
H721        H  0.71240974  0.82547867  0.82101280     0.11700
H722        H  0.62860721  0.80972562  0.88075444     0.08800
H723        H  0.65202180  0.80144912  0.91225129     0.12100
H724        H  0.71429946  0.81421299  0.86248944     0.14000
C725        C  0.62808952  0.57700179  0.92528972    -0.01600
C726        C  0.65582169  0.59041844  0.92630103    -0.09600
C727        C  0.67018886  0.61818827  0.92806370    -0.18400
C728        C  0.65705644  0.63326484  0.92927758     0.04000
C729        C  0.62886298  0.61917936  0.92956198     0.18200
C730        C  0.61484156  0.59153795  0.92720924    -0.19800
C731        C  0.61466547  0.63271298  0.93194182    -0.21100
C732        C  0.62780587  0.66007435  0.93400939    -0.19600
C733        C  0.65547053  0.67468109  0.93306212     0.19600
C734        C  0.67062413  0.66167236  0.93028927     0.01700
C735        C  0.69851861  0.67777521  0.92828993    -0.14400
C736        C  0.71071581  0.70553400  0.92948588    -0.12100
C737        C  0.69556281  0.71797841  0.93316085     0.01200
C738        C  0.66798316  0.70234605  0.93483992    -0.24300
H739        H  0.66642790  0.57950478  0.92480079     0.09200
H740        H  0.69149958  0.62734889  0.92841984     0.12800
H741        H  0.59334554  0.58118714  0.92671084     0.11500
H742        H  0.59318597  0.62202732  0.93232729     0.12700
H743        H  0.61619568  0.66992777  0.93603890     0.11700
H744        H  0.71132618  0.66944779  0.92561694     0.08800
H745        H  0.73209551  0.71725169  0.92821325     0.12100
H746        H  0.65609549  0.71185295  0.93741211     0.14000
C747        C  0.53140530  0.48778383  0.96535899    -0.01600
C748        C  0.53608921  0.48167251  0.98873406    -0.09600
C749        C  0.51854170  0.47769550  0.00773497    -0.18400
C750        C  0.49548942  0.47967039  0.00401376     0.04000
C751        C  0.49097075  0.48613401  0.98033210     0.18200
C752        C  0.50878641  0.49007814  0.96139870    -0.19800
C753        C  0.46863550  0.48859905  0.97560455    -0.21100
C754        C  0.45063684  0.48483351  0.99385960    -0.19600
C755        C  0.45440922  0.47837630  0.01732335     0.19600
C756        C  0.47678665  0.47555687  0.02282558     0.01700
C757        C  0.47932404  0.46873598  0.04687623    -0.14400
C758        C  0.46060749  0.46523655  0.06466194    -0.12100
C759        C  0.43879205  0.46842094  0.05914380     0.01200
C760        C  0.43585718  0.47485134  0.03533074    -0.24300
H761        H  0.55343701  0.47986054  0.99242391     0.09200
H762        H  0.52357502  0.47310610  0.02512147     0.12800
H763        H  0.50491016  0.49484420  0.94346345     0.11500
H764        H  0.46506498  0.49353133  0.95762910     0.12700
H765        H  0.43359004  0.48698227  0.98957002     0.11700
H766        H  0.49557605  0.46602840  0.05252258     0.08800
H767        H  0.46341876  0.46030159  0.08288209     0.12100
H768        H  0.41906171  0.47731092  0.03071457     0.14000
C769        C  0.17497943  0.96376470  0.99513381    -0.01600
C770        C  0.15587664  0.97183406  0.99502495    -0.09600
C771        C  0.15982970  0.99429027  0.00779399    -0.18400
C772        C  0.18365014  0.01009218  0.02052548     0.04000
C773        C  0.20268954  0.00138390  0.02113016     0.18200
C774        C  0.19789804  0.97802196  0.00901888    -0.19800
C775        C  0.22706166  0.01686868  0.03260738    -0.21100
C776        C  0.23358785  0.04149087  0.04227218    -0.19600
C777        C  0.21560379  0.05094314  0.04138522     0.19600
C778        C  0.18992109  0.03492426  0.03146190     0.01700
C779        C  0.17202282  0.04489400  0.03232935    -0.14400
C780        C  0.17987264  0.07026693  0.04140006    -0.12100
C781        C  0.20578787  0.08657494  0.04951649     0.01200
C782        C  0.22341578  0.07664532  0.04981937    -0.24300
H783        H  0.13805483  0.96110713  0.98431371     0.09200
H784        H  0.14447734  0.99951526  0.00631136     0.12800
H785        H  0.21294373  0.97212371  0.00881364     0.11500
H786        H  0.24163761  0.01038089  0.03324898     0.12700
H787        H  0.25303271  0.05341820  0.05018777     0.11700
H788        H  0.15191273  0.03363716  0.02596701     0.08800
H789        H  0.16595887  0.07759709  0.04113113     0.12100
H790        H  0.24342560  0.08915682  0.05639327     0.14000
C791        C  0.66641946  0.13238185  0.82258377    -0.01600
C792        C  0.65917213  0.11224068  0.83970740    -0.09600
C793        C  0.63756904  0.10525510  0.85514706    -0.18400
C794        C  0.62261889  0.11848161  0.85405969     0.04000
C795        C  0.63133442  0.14020927  0.83786612     0.18200
C796        C  0.65277799  0.14668938  0.82216119    -0.19800
C797        C  0.61813754  0.15487588  0.83694840    -0.21100
C798        C  0.59578670  0.14781787  0.85110965    -0.19600
C799        C  0.58562810  0.12547643  0.86604705     0.19600
C800        C  0.59895263  0.11051599  0.86785878     0.01700
C801        C  0.58712416  0.08736772  0.88228138    -0.14400
C802        C  0.56246102  0.07871571  0.89322905    -0.12100
C803        C  0.54932346  0.09330181  0.89099381     0.01200
C804        C  0.56137158  0.11711879  0.87808362    -0.24300
H805        H  0.66956152  0.10107225  0.84049536     0.09200
H806        H  0.63290142  0.08926244  0.86756787     0.12800
H807        H  0.65859352  0.16265366  0.80923656     0.11500
H808        H  0.62490978  0.17169861  0.82489626     0.12700
H809        H  0.58578052  0.15932551  0.84965130     0.11700
H810        H  0.59573218  0.07477297  0.88439462     0.08800
H811        H  0.55316135  0.06004365  0.90288381     0.12100
H812        H  0.55084438  0.12805998  0.87586062     0.14000
C813        C  0.38947179  0.02401620  0.92078212    -0.01600
C814        C  0.37642454  0.03837162  0.92560915    -0.09600
C815        C  0.34865746  0.02545275  0.92731223    -0.18400
C816        C  0.33312614  0.99758221  0.92467944     0.04000
C817        C  0.34671842  0.98314834  0.92087029     0.18200
C818        C  0.37441083  0.99640884  0.91856548    -0.19800
C819        C  0.33265128  0.95548590  0.91941042    -0.21100
C820        C  0.30528395  0.94167660  0.92196586    -0.19600
C821        C  0.29117722  0.95520625  0.92524011     0.19600
C822        C  0.30472663  0.98338206  0.92601727     0.01700
C823        C  0.28916299  0.99593438  0.92788801    -0.14400
C824        C  0.26144388  0.98104975  0.92968182    -0.12100
C825        C  0.24851437  0.95333848  0.93018696     0.01200
C826        C  0.26351268  0.94059992  0.92783282    -0.24300
H827        H  0.38766439  0.05972234  0.92739504     0.09200
H828        H  0.33988385  0.03770523  0.93090593     0.12800
H829        H  0.38437920  0.98509499  0.91515962     0.11500
H830        H  0.34294168  0.94439844  0.91660287     0.12700
H831        H  0.29504095  0.92022672  0.92115758     0.11700
H832        H  0.29787616  0.01719086  0.92786978     0.08800
H833        H  0.25014808  0.99123696  0.93151910     0.12100
H834        H  0.25351300  0.91911961  0.92795347     0.14000
C835        C  0.09863895  0.54685430  0.62019257    -0.01600
C836        C  0.07860815  0.55356276  0.62215586    -0.09600
C837        C  0.08401932  0.57835757  0.63073209    -0.18400
C838        C  0.10974220  0.59719872  0.63844847     0.04000
C839        C  0.13028962  0.59071580  0.63558206     0.18200
C840        C  0.12471258  0.56593937  0.62594240    -0.19800
C841        C  0.15591282  0.60835107  0.64372133    -0.21100
C842        C  0.16113949  0.63128907  0.65619277    -0.19600
C843        C  0.14106309  0.63759419  0.66024637     0.19600
C844        C  0.11541944  0.62139392  0.65034410     0.01700
C845        C  0.09632826  0.62959232  0.65376713    -0.14400
C846        C  0.10182886  0.65161658  0.66813203    -0.12100
C847        C  0.12634400  0.66599909  0.67962080     0.01200
C848        C  0.14613146  0.65936132  0.67504324    -0.24300
H849        H  0.05834478  0.53915331  0.61762563     0.09200
H850        H  0.06735215  0.58163827  0.63225401     0.12800
H851        H  0.14026133  0.56078785  0.62464312     0.11500
H852        H  0.17175674  0.60376031  0.64144144     0.12700
H853        H  0.18089486  0.64386069  0.66325231     0.11700
H854        H  0.07677796  0.61905631  0.64601255     0.08800
H855        H  0.08632386  0.65649062  0.67140220     0.12100
H856        H  0.16526392  0.67066553  0.68373172     0.14000
C857        C  0.14288883  0.76646818  0.79319874    -0.01600
C858        C  0.14662153  0.75965531  0.81664774    -0.09600
C859        C  0.14954710  0.77588925  0.83652259    -0.18400
C860        C  0.14899366  0.79981315  0.83367451     0.04000
C861        C  0.14519268  0.80664812  0.80988499     0.18200
C862        C  0.14208999  0.79003525  0.79008409    -0.19800
C863        C  0.14468553  0.83017371  0.80590229    -0.21100
C864        C  0.14806475  0.84721298  0.82493452    -0.19600
C865        C  0.15193775  0.84118463  0.84853904     0.19600
C866        C  0.15229833  0.81734136  0.85339646     0.01700
C867        C  0.15606392  0.81230121  0.87772986    -0.14400
C868        C  0.15968161  0.83036364  0.89625746    -0.12100
C869        C  0.15959760  0.85400039  0.89126606     0.01200
C870        C  0.15554013  0.85905624  0.86727970    -0.24300
H871        H  0.14729041  0.74158565  0.81973257     0.09200
H872        H  0.15237754  0.76926596  0.85387495     0.12800
H873        H  0.13927857  0.79565386  0.77212189     0.11500
H874        H  0.14180122  0.83554101  0.78786459     0.12700
H875        H  0.14770727  0.86533386  0.82112735     0.11700
H876        H  0.15632003  0.79457618  0.88300155     0.08800
H877        H  0.16249153  0.82573651  0.91459210     0.12100
H878        H  0.15527329  0.87714159  0.86304561     0.14000
C879        C  0.75610609  0.54298574  0.79146267    -0.01600
C880        C  0.74390516  0.55841341  0.78865450    -0.09600
C881        C  0.71929132  0.55084137  0.79927897    -0.18400
C882        C  0.70646859  0.52787404  0.81384395     0.04000
C883        C  0.71904061  0.51226834  0.81655243     0.18200
C884        C  0.74334474  0.51962778  0.80497107    -0.19800
C885        C  0.70789622  0.49006460  0.83166882    -0.21100
C886        C  0.68504820  0.48350095  0.84484422    -0.19600
C887        C  0.67240630  0.49861509  0.84283902     0.19600
C888        C  0.68235785  0.52051092  0.82673626     0.01700
C889        C  0.66803349  0.53435728  0.82477132    -0.14400
C890        C  0.64578274  0.52770771  0.83931137    -0.12100
C891        C  0.63728374  0.50726801  0.85630376     0.01200
C892        C  0.65029084  0.49239632  0.85747141    -0.24300
H893        H  0.75380296  0.57679806  0.77858269     0.09200
H894        H  0.71135158  0.56394274  0.79659525     0.12800
H895        H  0.75315984  0.50807090  0.80769367     0.11500
H896        H  0.71736134  0.47812843  0.83388043     0.12700
H897        H  0.67738700  0.46664214  0.85694744     0.11700
H898        H  0.67375842  0.55063068  0.81241687     0.08800
H899        H  0.63597273  0.53940433  0.83805487     0.12100
H900        H  0.64355909  0.47627515  0.87036008     0.14000
C901        C  0.91397115  0.60804676  0.75436249    -0.01600
C902        C  0.92568219  0.59342814  0.74597382    -0.09600
C903        C  0.95340861  0.60495212  0.74474303    -0.18400
C904        C  0.97029973  0.63162722  0.75180277     0.04000
C905        C  0.95813244  0.64654152  0.75926929     0.18200
C906        C  0.93046377  0.63473477  0.76051048    -0.19800
C907        C  0.97358949  0.67318021  0.76579206    -0.21100
C908        C  0.00101833  0.68555439  0.76493592    -0.19600
C909        C  0.01373362  0.67150744  0.75791702     0.19600
C910        C  0.99871201  0.64421664  0.75164119     0.01700
C911        C  0.01290667  0.63094339  0.74555919    -0.14400
C912        C  0.04075300  0.64453944  0.74486164    -0.12100
C913        C  0.05514984  0.67168783  0.74993582     0.01200
C914        C  0.04149990  0.68488264  0.75673810    -0.24300
H915        H  0.91342021  0.57279114  0.74108464     0.09200
H916        H  0.96108695  0.59251174  0.73835276     0.12800
H917        H  0.92170356  0.64641764  0.76672754     0.11500
H918        H  0.96437858  0.68461230  0.77148503     0.12700
H919        H  0.01239142  0.70630304  0.76984925     0.11700
H920        H  0.00300403  0.61016888  0.74105459     0.08800
H921        H  0.05100827  0.63408500  0.73930113     0.12100
H922        H  0.05265027  0.70592256  0.76068911     0.14000
C923        C  0.99911684  0.78555565  0.49734037    -0.01600
C924        C  0.99556929  0.80618747  0.50613574    -0.09600
C925        C  0.97266058  0.80085826  0.51896285    -0.18400
C926        C  0.95203870  0.77450646  0.52253816     0.04000
C927        C  0.95629283  0.75365974  0.51424063     0.18200
C928        C  0.97992393  0.75936547  0.50224163    -0.19800
C929        C  0.93625945  0.72725861  0.51651919    -0.21100
C930        C  0.91154813  0.72108839  0.52563662    -0.19600
C931        C  0.90641965  0.74113168  0.53317972     0.19600
C932        C  0.92681107  0.76808116  0.53264440     0.01700
C933        C  0.92067335  0.78735083  0.54150416    -0.14400
C934        C  0.89499441  0.78020994  0.54927849    -0.12100
C935        C  0.87468119  0.75379686  0.54823686     0.01200
C936        C  0.88072350  0.73434653  0.54066308    -0.24300
H937        H  0.01008239  0.82656052  0.50207736     0.09200
H938        H  0.97103278  0.81775779  0.52462588     0.12800
H939        H  0.98238360  0.74339636  0.49484623     0.11500
H940        H  0.93937945  0.71129407  0.51031586     0.12700
H941        H  0.89615200  0.70048171  0.52634312     0.11700
H942        H  0.93521492  0.80809459  0.54242882     0.08800
H943        H  0.89081903  0.79551582  0.55535377     0.12100
H944        H  0.86520424  0.71375653  0.54033122     0.14000
C945        C  0.80065068  0.68311596  0.61831118    -0.01600
C946        C  0.79618180  0.65744990  0.61396426    -0.09600
C947        C  0.79925553  0.64272148  0.63246417    -0.18400
C948        C  0.80701813  0.65329245  0.65605901     0.04000
C949        C  0.81130150  0.67924400  0.66035136     0.18200
C950        C  0.80803859  0.69371013  0.64167318    -0.19800
C951        C  0.81910650  0.69083087  0.68323290    -0.21100
C952        C  0.82308801  0.67733462  0.70200713    -0.19600
C953        C  0.81930636  0.65184772  0.69843911     0.19600
C954        C  0.81099803  0.63931729  0.67548139     0.01700
C955        C  0.80724610  0.61345935  0.67300895    -0.14400
C956        C  0.81202055  0.60087654  0.69230536    -0.12100
C957        C  0.82064257  0.61345974  0.71480083     0.01200
C958        C  0.82399230  0.63891818  0.71773088    -0.24300
H959        H  0.79051618  0.64876390  0.59612272     0.09200
H960        H  0.79563953  0.62322343  0.62766973     0.12800
H961        H  0.81158436  0.71353835  0.64538328     0.11500
H962        H  0.82236130  0.71061061  0.68660409     0.12700
H963        H  0.82931902  0.68698597  0.71943938     0.11700
H964        H  0.80071135  0.60244107  0.65636651     0.08800
H965        H  0.80897502  0.58110347  0.68949337     0.12100
H966        H  0.83045312  0.64883193  0.73503761     0.14000
C967        C  0.57898637  0.63491097  0.60009046    -0.01600
C968        C  0.59610767  0.64763455  0.61944866    -0.09600
C969        C  0.62336598  0.66332347  0.61569233    -0.18400
C970        C  0.63446382  0.66599120  0.59237992     0.04000
C971        C  0.61684953  0.65290911  0.57280788     0.18200
C972        C  0.58933071  0.63817519  0.57672384    -0.19800
C973        C  0.62687099  0.65360523  0.54963805    -0.21100
C974        C  0.65404304  0.66610646  0.54562007    -0.19600
C975        C  0.67187047  0.67898532  0.56450185     0.19600
C976        C  0.66241054  0.68003380  0.58795864     0.01700
C977        C  0.68139937  0.69470643  0.60597483    -0.14400
C978        C  0.70860134  0.70647985  0.60119895    -0.12100
C979        C  0.71766993  0.70374479  0.57850067     0.01200
C980        C  0.69916999  0.69042611  0.56012405    -0.24300
H981        H  0.58833735  0.64512647  0.63767757     0.09200
H982        H  0.63532178  0.67216123  0.63151948     0.12800
H983        H  0.57607627  0.62788426  0.56181615     0.11500
H984        H  0.61360620  0.64364536  0.53466937     0.12700
H985        H  0.66117352  0.66553470  0.52762415     0.11700
H986        H  0.67583299  0.69737833  0.62392328     0.08800
H987        H  0.72255910  0.71699772  0.61555703     0.12100
H988        H  0.70607121  0.68877041  0.54230855     0.14000
C989        C  0.50637526  0.63740530  0.66619250    -0.01600
C990        C  0.48829949  0.64678855  0.66662705    -0.09600
C991        C  0.49365427  0.66954647  0.67975941    -0.18400
C992        C  0.51792835  0.68433873  0.69218948     0.04000
C993        C  0.53589205  0.67428626  0.69214379     0.18200
C994        C  0.52965425  0.65067207  0.67979528    -0.19800
C995        C  0.56067735  0.68865563  0.70321276    -0.21100
C996        C  0.56866514  0.71346721  0.71316449    -0.19600
C997        C  0.55179402  0.72425422  0.71294440     0.19600
C998        C  0.52574490  0.70944605  0.70340939     0.01700
C999        C  0.50914607  0.72091956  0.70484778    -0.14400
C1000       C  0.51867225  0.74664673  0.71392746    -0.12100
C1001       C  0.54499411  0.76174687  0.72155691     0.01200
C1002       C  0.56121393  0.75019103  0.72149513    -0.24300
H1003       H  0.47021003  0.63684198  0.65616607     0.09200
H1004       H  0.47903681  0.67582125  0.67882431     0.12800
H1005       H  0.54393155  0.64377415  0.67917475     0.11500
H1006       H  0.57444380  0.68113372  0.70330408     0.12700
H1007       H  0.58840416  0.72451791  0.72072958     0.11700
H1008       H  0.48886797  0.71063579  0.69876804     0.08800
H1009       H  0.50581717  0.75523461  0.71386425     0.12100
H1010       H  0.58154347  0.76175519  0.72763204     0.14000
C1011       C  0.49657122  0.53058914  0.56157085    -0.01600
C1012       C  0.50498497  0.51202869  0.56536645    -0.09600
C1013       C  0.50270303  0.49423682  0.54708874    -0.18400
C1014       C  0.49174020  0.49430977  0.52424444     0.04000
C1015       C  0.48324037  0.51316631  0.52051094     0.18200
C1016       C  0.48576483  0.53096704  0.53897201    -0.19800
C1017       C  0.47216139  0.51416331  0.49835963    -0.21100
C1018       C  0.46939186  0.49690280  0.47970894    -0.19600
C1019       C  0.47759489  0.47812012  0.48266886     0.19600
C1020       C  0.48882639  0.47644079  0.50498660     0.01700
C1021       C  0.49656541  0.45692421  0.50696318    -0.14400
C1022       C  0.49326465  0.43989531  0.48767640    -0.12100
C1023       C  0.48234609  0.44173218  0.46564996     0.01200
C1024       C  0.47460027  0.46100523  0.46335186    -0.24300
H1025       H  0.51341315  0.51122747  0.58257144     0.09200
H1026       H  0.50965229  0.48063075  0.55140705     0.12800
H1027       H  0.47906192  0.54510692  0.53570086     0.11500
H1028       H  0.46558316  0.52844820  0.49541143     0.12700
H1029       H  0.46075456  0.49827397  0.46280391     0.11700
H1030       H  0.50523720  0.45431619  0.52319015     0.08800
H1031       H  0.49958653  0.42533988  0.48998992     0.12100
H1032       H  0.46605899  0.46264241  0.44648065     0.14000
C1033       C  0.42912945  0.22144652  0.28993767    -0.01600
C1034       C  0.41203984  0.23196920  0.29027247    -0.09600
C1035       C  0.42013181  0.25703358  0.30001286    -0.18400
C1036       C  0.44543978  0.27203448  0.31065082     0.04000
C1037       C  0.46280984  0.26129338  0.31004145     0.18200
C1038       C  0.45479355  0.23652473  0.29914269    -0.19800
C1039       C  0.48749290  0.27464774  0.32147860    -0.21100
C1040       C  0.49468826  0.29762306  0.33470188    -0.19600
C1041       C  0.47776165  0.30831835  0.33615850     0.19600
C1042       C  0.45348108  0.29643805  0.32317346     0.01700
C1043       C  0.43795696  0.30907422  0.32400760    -0.14400
C1044       C  0.44518820  0.33124395  0.33869603    -0.12100
C1045       C  0.46785313  0.34130678  0.35314346     0.01200
C1046       C  0.48446900  0.33024436  0.35127658    -0.24300
H1047       H  0.39203059  0.22042399  0.28341060     0.09200
H1048       H  0.40565641  0.26351622  0.30004551     0.12800
H1049       H  0.46783799  0.22813045  0.29936499     0.11500
H1050       H  0.50086588  0.26665707  0.32106130     0.12700
H1051       H  0.51344190  0.30684093  0.34421112     0.11700
H1052       H  0.41991758  0.30203686  0.31381685     0.08800
H1053       H  0.43216959  0.33961259  0.33981428     0.12100
H1054       H  0.50226190  0.33825063  0.36220678     0.14000
C1055       C  0.09533921  0.19957239  0.46166776    -0.01600
C1056       C  0.07604527  0.20247955  0.44909879    -0.09600
C1057       C  0.05143741  0.19521475  0.45988016    -0.18400
C1058       C  0.04555094  0.18489664  0.48371272     0.04000
C1059       C  0.06486120  0.18072546  0.49568606     0.18200
C1060       C  0.08938835  0.18817069  0.48467950    -0.19800
C1061       C  0.06009357  0.17012301  0.51901898    -0.21100
C1062       C  0.03698389  0.16449526  0.53123066    -0.19600
C1063       C  0.01812376  0.16954678  0.52052553     0.19600
C1064       C  0.02179912  0.17943215  0.49649698     0.01700
C1065       C  0.00199359  0.18426952  0.48682653    -0.14400
C1066       C  0.98017224  0.18053153  0.50083583    -0.12100
C1067       C  0.97719154  0.17159582  0.52479369     0.01200
C1068       C  0.99601529  0.16553685  0.53417309    -0.24300
H1069       H  0.08047274  0.21154028  0.43135245     0.09200
H1070       H  0.03771798  0.19854651  0.44943008     0.12800
H1071       H  0.10442453  0.18607017  0.49445761     0.11500
H1072       H  0.07462670  0.16667488  0.52811720     0.12700
H1073       H  0.03418155  0.15678938  0.54948134     0.11700
H1074       H  0.00318828  0.19157635  0.46871220     0.08800
H1075       H  0.96589671  0.18521386  0.49302361     0.12100
H1076       H  0.99400270  0.15845316  0.55260029     0.14000
C1077       C  0.25376938  0.27200168  0.42403536    -0.01600
C1078       C  0.26719246  0.25851226  0.41716484    -0.09600
C1079       C  0.29500229  0.27204461  0.41516190    -0.18400
C1080       C  0.31017587  0.29965488  0.41972357     0.04000
C1081       C  0.29614557  0.31326857  0.42539963     0.18200
C1082       C  0.26847427  0.29943203  0.42771457    -0.19800
C1083       C  0.30975838  0.34067665  0.42907314    -0.21100
C1084       C  0.33715894  0.35503915  0.42736322    -0.19600
C1085       C  0.35174153  0.34228816  0.42257272     0.19600
C1086       C  0.33862662  0.31436612  0.41897356     0.01700
C1087       C  0.35467127  0.30255691  0.41527242    -0.14400
C1088       C  0.38245644  0.31792926  0.41503192    -0.12100
C1089       C  0.39500125  0.34547662  0.41791002     0.01200
C1090       C  0.37948194  0.35745688  0.42151698    -0.24300
H1091       H  0.25626479  0.23732033  0.41414367     0.09200
H1092       H  0.30412027  0.26044984  0.41011268     0.12800
H1093       H  0.25826424  0.31015078  0.43265295     0.11500
H1094       H  0.29910638  0.35113215  0.43326889     0.12700
H1095       H  0.34706049  0.37627664  0.43019463     0.11700
H1096       H  0.34628155  0.28150568  0.41275259     0.08800
H1097       H  0.39416175  0.30835695  0.41188499     0.12100
H1098       H  0.38915028  0.37878682  0.42376040     0.14000
C1099       C  0.33140501  0.46112120  0.16171824    -0.01600
C1100       C  0.32488051  0.44479596  0.18210062    -0.09600
C1101       C  0.30373270  0.44074075  0.19710285    -0.18400
C1102       C  0.28841922  0.45305559  0.19217218     0.04000
C1103       C  0.29628625  0.47095371  0.17236633     0.18200
C1104       C  0.31743140  0.47467439  0.15737093    -0.19800
C1105       C  0.28246367  0.48439660  0.16711470    -0.21100
C1106       C  0.26015306  0.47953456  0.18039943    -0.19600
C1107       C  0.25087991  0.46083036  0.19904772     0.19600
C1108       C  0.26507962  0.44758916  0.20552308     0.01700
C1109       C  0.25439630  0.42837339  0.22412615    -0.14400
C1110       C  0.22985016  0.42141162  0.23459939    -0.12100
C1111       C  0.21568178  0.43391863  0.22748301     0.01200
C1112       C  0.22662028  0.45416297  0.21029279    -0.24300
H1113       H  0.33552297  0.43429492  0.18597171     0.09200
H1114       H  0.29959410  0.42752702  0.21217022     0.12800
H1115       H  0.32263982  0.48774601  0.14187935     0.11500
H1116       H  0.28859110  0.49833533  0.15224327     0.12700
H1117       H  0.24951837  0.48978539  0.17546700     0.11700
H1118       H  0.26385206  0.41744633  0.23011992     0.08800
H1119       H  0.22133200  0.40536158  0.24758798     0.12100
H1120       H  0.21526967  0.46337841  0.20440540     0.14000
C1121       C  0.14338854  0.35492137  0.29713134    -0.01600
C1122       C  0.14673845  0.36382120  0.32114385    -0.09600
C1123       C  0.15014731  0.34960020  0.33980679    -0.18400
C1124       C  0.15042586  0.32579807  0.33512938     0.04000
C1125       C  0.14658181  0.31656688  0.31082547     0.18200
C1126       C  0.14310802  0.33107654  0.29219359    -0.19800
C1127       C  0.14639589  0.29296928  0.30520999    -0.21100
C1128       C  0.15007859  0.27836576  0.32315800    -0.19600
C1129       C  0.15417409  0.28701792  0.34720728     0.19600
C1130       C  0.15445277  0.31087407  0.35359778     0.01700
C1131       C  0.15895882  0.31878242  0.37815274    -0.14400
C1132       C  0.16293744  0.30363088  0.39553527    -0.12100
C1133       C  0.16250612  0.28005730  0.38917804     0.01200
C1134       C  0.15808890  0.27192373  0.36489701    -0.24300
H1135       H  0.14685282  0.38203948  0.32561697     0.09200
H1136       H  0.15258330  0.35783470  0.35770086     0.12800
H1137       H  0.14043808  0.32387076  0.27374979     0.11500
H1138       H  0.14343050  0.28576034  0.28676115     0.12700
H1139       H  0.14984581  0.26020041  0.31815438     0.11700
H1140       H  0.15964069  0.33664784  0.38452520     0.08800
H1141       H  0.16631680  0.31044045  0.41410217     0.12100
H1142       H  0.15777685  0.25377505  0.35965051     0.14000
C1143       C  0.91485845  0.29012147  0.25959625    -0.01600
C1144       C  0.92711721  0.31762348  0.25670466    -0.09600
C1145       C  0.95481206  0.33299751  0.25541293    -0.18400
C1146       C  0.97101902  0.32111700  0.25661600     0.04000
C1147       C  0.95819839  0.29300792  0.25788578     0.18200
C1148       C  0.93053084  0.27796602  0.25973155    -0.19800
C1149       C  0.97303620  0.27999979  0.25759069    -0.21100
C1150       C  0.00047324  0.29431141  0.25613579    -0.19600
C1151       C  0.01378798  0.32200760  0.25573729     0.19600
C1152       C  0.99938823  0.33593164  0.25647977     0.01700
C1153       C  0.01409301  0.36397608  0.25747613    -0.14400
C1154       C  0.04188891  0.37752047  0.25689637    -0.12100
C1155       C  0.05572202  0.36355871  0.25485550     0.01200
C1156       C  0.04152684  0.33584057  0.25453023    -0.24300
H1157       H  0.91532185  0.32737217  0.25637655     0.09200
H1158       H  0.96300208  0.35408672  0.25347234     0.12800
H1159       H  0.92109450  0.25660119  0.26148239     0.11500
H1160       H  0.96333399  0.25856879  0.25834653     0.12700
H1161       H  0.01138812  0.28363225  0.25567157     0.11700
H1162       H  0.00464233  0.37590460  0.25885466     0.08800
H1163       H  0.05255506  0.39897432  0.25717343     0.12100
H1164       H  0.05221489  0.32494910  0.25328516     0.14000
C1165       C  0.84404015  0.29683770  0.32825161    -0.01600
C1166       C  0.86682391  0.30752586  0.34257268    -0.09600
C1167       C  0.87396571  0.33011523  0.35663247    -0.18400
C1168       C  0.85824998  0.34255747  0.35691557     0.04000
C1169       C  0.83375443  0.32995055  0.34430271     0.18200
C1170       C  0.82713962  0.30761944  0.32978736    -0.19800
C1171       C  0.81654208  0.34033419  0.34549867    -0.21100
C1172       C  0.82371553  0.36374709  0.35799818    -0.19600
C1173       C  0.84871048  0.37791588  0.36878203     0.19600
C1174       C  0.86633913  0.36747807  0.36845834     0.01700
C1175       C  0.89198819  0.38331059  0.37817594    -0.14400
C1176       C  0.90016787  0.40887286  0.38667442    -0.12100
C1177       C  0.88284582  0.41911543  0.38671952     0.01200
C1178       C  0.85682375  0.40321402  0.37855922    -0.24300
H1179       H  0.87999651  0.29931966  0.34180759     0.09200
H1180       H  0.89208702  0.33763354  0.36678796     0.12800
H1181       H  0.80919263  0.29907733  0.31903782     0.11500
H1182       H  0.79759105  0.33053382  0.33632715     0.12700
H1183       H  0.81012510  0.37148234  0.35821489     0.11700
H1184       H  0.90667243  0.37709833  0.37818970     0.08800
H1185       H  0.92042792  0.42102067  0.39273036     0.12100
H1186       H  0.84355985  0.41134793  0.37810339     0.14000
C1187       C  0.79880335  0.10248350  0.12144350    -0.01600
C1188       C  0.80287419  0.12776310  0.11605437    -0.09600
C1189       C  0.80829769  0.14632737  0.13442259    -0.18400
C1190       C  0.80970130  0.14007478  0.15892941     0.04000
C1191       C  0.80455917  0.11404302  0.16431858     0.18200
C1192       C  0.79931469  0.09569122  0.14568217    -0.19800
C1193       C  0.80494480  0.10650110  0.18826548    -0.21100
C1194       C  0.81047956  0.12433857  0.20709962    -0.19600
C1195       C  0.81603195  0.15025744  0.20244858     0.19600
C1196       C  0.81590462  0.15858335  0.17828056     0.01700
C1197       C  0.82207016  0.18509454  0.17457610    -0.14400
C1198       C  0.82718771  0.20224908  0.19404684    -0.12100
C1199       C  0.82663697  0.19379252  0.21785952     0.01200
C1200       C  0.82146583  0.16784852  0.22189365    -0.24300
H1201       H  0.80260280  0.13349843  0.09748234     0.09200
H1202       H  0.81141749  0.16541250  0.12881995     0.12800
H1203       H  0.79591752  0.07606516  0.15009226     0.11500
H1204       H  0.80091883  0.08662714  0.19247204     0.12700
H1205       H  0.81050283  0.11782836  0.22544321     0.11700
H1206       H  0.82300720  0.19319055  0.15686839     0.08800
H1207       H  0.83147701  0.22230484  0.19038969     0.12100
H1208       H  0.82101221  0.16110435  0.24024365     0.14000
C1209       C  0.75918853  0.87784532  0.95878522    -0.01600
C1210       C  0.78508971  0.89344005  0.96713180    -0.09600
C1211       C  0.79346530  0.91882127  0.97628418    -0.18400
C1212       C  0.77605886  0.92934992  0.97706794     0.04000
C1213       C  0.75065912  0.91431011  0.96633223     0.18200
C1214       C  0.74228923  0.88858757  0.95779432    -0.19800
C1215       C  0.73344654  0.92465897  0.96497269    -0.21100
C1216       C  0.74040547  0.94916866  0.97511849    -0.19600
C1217       C  0.76425552  0.96339150  0.98772756     0.19600
C1218       C  0.78249357  0.95372270  0.98883679     0.01700
C1219       C  0.80546514  0.96786695  0.00311880    -0.14400
C1220       C  0.80936359  0.98975712  0.01671992    -0.12100
C1221       C  0.79112313  0.99887666  0.01585806     0.01200
C1222       C  0.76915635  0.98629345  0.00058287    -0.24300
H1223       H  0.79845507  0.88545733  0.96772230     0.09200
H1224       H  0.81353155  0.92960421  0.98286427     0.12800
H1225       H  0.72233415  0.87659248  0.95088209     0.11500
H1226       H  0.71426656  0.91350798  0.95636809     0.12700
H1227       H  0.72644267  0.95641649  0.97413271     0.11700
H1228       H  0.81997496  0.96158523  0.00529226     0.08800
H1229       H  0.82637014  0.99916767  0.02860177     0.12100
H1230       H  0.75471843  0.99299324  0.00031112     0.14000
C1231       C  0.29690107  0.84699260  0.17992854    -0.01600
C1232       C  0.31034373  0.86931510  0.16521085    -0.09600
C1233       C  0.33319063  0.87387255  0.15264731    -0.18400
C1234       C  0.34307047  0.85597380  0.15439040     0.04000
C1235       C  0.32760523  0.83196527  0.16722747     0.18200
C1236       C  0.30504069  0.82792133  0.18015306    -0.19800
C1237       C  0.33537181  0.81266119  0.16791302    -0.21100
C1238       C  0.35882376  0.81714729  0.15691061    -0.19600
C1239       C  0.37564618  0.84149232  0.14588527     0.19600
C1240       C  0.36806527  0.86134134  0.14458389     0.01700
C1241       C  0.38657388  0.88630400  0.13498400    -0.14400
C1242       C  0.41173073  0.89151031  0.12765043    -0.12100
C1243       C  0.41895009  0.87184416  0.12875829     0.01200
C1244       C  0.40060950  0.84663296  0.13727087    -0.24300
H1245       H  0.30415374  0.88410625  0.16461916     0.09200
H1246       H  0.34296791  0.89176161  0.14205267     0.12800
H1247       H  0.29431334  0.81032478  0.19121066     0.11500
H1248       H  0.32340776  0.79410521  0.17732468     0.12700
H1249       H  0.36441666  0.80192439  0.15800092     0.11700
H1250       H  0.38266218  0.90259386  0.13402654     0.08800
H1251       H  0.42580952  0.91118228  0.12127034     0.12100
H1252       H  0.40640851  0.83156234  0.13858731     0.14000
C1253       C  0.47820819  0.01616650  0.96310747    -0.01600
C1254       C  0.49327044  0.02943667  0.98347171    -0.09600
C1255       C  0.49674281  0.01554836  0.00239900    -0.18400
C1256       C  0.48486052  0.98763038  0.00179111     0.04000
C1257       C  0.46916300  0.97418196  0.98127868     0.18200
C1258       C  0.46625912  0.98848692  0.96212073    -0.19800
C1259       C  0.45632644  0.94651007  0.98005785    -0.21100
C1260       C  0.45883557  0.93185400  0.99868443    -0.19600
C1261       C  0.47445114  0.94447985  0.01893917     0.19600
C1262       C  0.48777899  0.97255656  0.02081634     0.01700
C1263       C  0.50341879  0.98422698  0.04165465    -0.14400
C1264       C  0.50536743  0.96865320  0.05993963    -0.12100
C1265       C  0.49209075  0.94099870  0.05803696     0.01200
C1266       C  0.47676541  0.92910295  0.03736700    -0.24300
H1267       H  0.50273919  0.05081590  0.98468486     0.09200
H1268       H  0.50869680  0.02725402  0.01732632     0.12800
H1269       H  0.45431117  0.97800198  0.94656920     0.11500
H1270       H  0.44417904  0.93609801  0.96459392     0.12700
H1271       H  0.44855438  0.91044934  0.99717989     0.11700
H1272       H  0.51444676  0.00534838  0.04436452     0.08800
H1273       H  0.51752581  0.97835884  0.07558185     0.12100
H1274       H  0.46632013  0.90770162  0.03568665     0.14000
C1275       C  0.71411745  0.00033016  0.07933335    -0.01600
C1276       C  0.70470245  0.98463106  0.10012229    -0.09600
C1277       C  0.67749589  0.96779778  0.10371867    -0.18400
C1278       C  0.65870698  0.96589648  0.08637748     0.04000
C1279       C  0.66846080  0.98124330  0.06496054     0.18200
C1280       C  0.69579630  0.99837305  0.06178463    -0.19800
C1281       C  0.65088505  0.97954028  0.04684258    -0.21100
C1282       C  0.62369651  0.96320303  0.04965166    -0.19600
C1283       C  0.61331430  0.94851136  0.07084941     0.19600
C1284       C  0.63064985  0.94962689  0.08956680     0.01700
C1285       C  0.61906007  0.93516605  0.11098501    -0.14400
C1286       C  0.59156114  0.92123916  0.11403323    -0.12100
C1287       C  0.57471347  0.92051183  0.09567011     0.01200
C1288       C  0.58562321  0.93361455  0.07388056    -0.24300
H1289       H  0.71841336  0.98563237  0.11387424     0.09200
H1290       H  0.67181958  0.95646087  0.12019914     0.12800
H1291       H  0.70284538  0.01011606  0.04542717     0.11500
H1292       H  0.65821964  0.99104612  0.03039247     0.12700
H1293       H  0.61065245  0.96252874  0.03535225     0.11700
H1294       H  0.63068478  0.93510494  0.12608818     0.08800
H1295       H  0.58336844  0.91156301  0.13116027     0.12100
H1296       H  0.57256284  0.93362381  0.05990451     0.14000
C1297       C  0.77564593  0.79252821  0.99787300    -0.01600
C1298       C  0.80250538  0.81172993  0.99941791    -0.09600
C1299       C  0.82001352  0.80745744  0.01352064    -0.18400
C1300       C  0.81140324  0.78321233  0.02580427     0.04000
C1301       C  0.78398203  0.76396689  0.02447565     0.18200
C1302       C  0.76631471  0.76911652  0.01121098    -0.19800
C1303       C  0.77466874  0.73905193  0.03509686    -0.21100
C1304       C  0.79218507  0.73217765  0.04559439    -0.19600
C1305       C  0.81935332  0.75037920  0.04658372     0.19600
C1306       C  0.82919881  0.77663207  0.03790689     0.01700
C1307       C  0.85655647  0.79474174  0.04104268    -0.14400
C1308       C  0.87368255  0.78653622  0.05056450    -0.12100
C1309       C  0.86415447  0.76001962  0.05689632     0.01200
C1310       C  0.83687858  0.74223030  0.05546166    -0.24300
H1311       H  0.81012482  0.82986209  0.98907303     0.09200
H1312       H  0.84056396  0.82294079  0.01333214     0.12800
H1313       H  0.74563512  0.75395638  0.00964302     0.11500
H1314       H  0.75382394  0.72430358  0.03425365     0.12700
H1315       H  0.78446818  0.71228439  0.05262627     0.11700
H1316       H  0.86533763  0.81539047  0.03601458     0.08800
H1317       H  0.89464410  0.80065041  0.05185032     0.12100
H1318       H  0.82934536  0.72176314  0.06085082     0.14000
C1319       C  0.96746212  0.77836473  0.01901447    -0.01600
C1320       C  0.97707082  0.76677121  0.00261347    -0.09600
C1321       C  0.99960690  0.78252179  0.98872621    -0.18400
C1322       C  0.01310020  0.81047176  0.99082371     0.04000
C1323       C  0.00151818  0.82210521  0.00557063     0.18200
C1324       C  0.97913385  0.80603052  0.01974391    -0.19800
C1325       C  0.01300207  0.84969369  0.00685572    -0.21100
C1326       C  0.03650365  0.86605710  0.99464225    -0.19600
C1327       C  0.04959558  0.85522450  0.98162643     0.19600
C1328       C  0.03807221  0.82723173  0.97954190     0.01700
C1329       C  0.05288185  0.81720419  0.96768018    -0.14400
C1330       C  0.07836433  0.83422200  0.95904196    -0.12100
C1331       C  0.08950602  0.86166163  0.96111434     0.01200
C1332       C  0.07483870  0.87215956  0.97181970    -0.24300
H1333       H  0.96809320  0.74541813  0.00156329     0.09200
H1334       H  0.00626019  0.77226811  0.97683431     0.12800
H1335       H  0.97134824  0.81507256  0.03206906     0.11500
H1336       H  0.00399472  0.85868324  0.01772771     0.12700
H1337       H  0.04511031  0.88733658  0.99630138     0.11700
H1338       H  0.04590531  0.79630225  0.96592961     0.08800
H1339       H  0.08971717  0.82588449  0.95110729     0.12100
H1340       H  0.08381829  0.89344632  0.97394617     0.14000
C1341       C  0.10158483  0.53531851  0.12422885    -0.01600
C1342       C  0.08687148  0.50817697  0.11926732    -0.09600
C1343       C  0.09350498  0.49033454  0.12982952    -0.18400
C1344       C  0.11471015  0.49910519  0.14644065     0.04000
C1345       C  0.13009310  0.52687256  0.15074639     0.18200
C1346       C  0.12365614  0.54464989  0.13938370    -0.19800
C1347       C  0.15091300  0.53663766  0.16739502    -0.21100
C1348       C  0.15597700  0.51941726  0.18081750    -0.19600
C1349       C  0.14060532  0.49197820  0.17770731     0.19600
C1350       C  0.12033891  0.48136388  0.15990550     0.01700
C1351       C  0.10609180  0.45344693  0.15705269    -0.14400
C1352       C  0.11079872  0.43684229  0.17216946    -0.12100
C1353       C  0.12961661  0.44746378  0.19067403     0.01200
C1354       C  0.14486183  0.47507537  0.19290941    -0.24300
H1355       H  0.06948053  0.50061132  0.10786701     0.09200
H1356       H  0.08090752  0.46969500  0.12552934     0.12800
H1357       H  0.13469897  0.56560599  0.14366944     0.11500
H1358       H  0.16280171  0.55773762  0.17068207     0.12700
H1359       H  0.17169140  0.52762483  0.19413566     0.11700
H1360       H  0.09089710  0.44384884  0.14356612     0.08800
H1361       H  0.09888389  0.41557472  0.17002985     0.12100
H1362       H  0.15978682  0.48346530  0.20695374     0.14000
C1363       C  0.03481644  0.62929465  0.09526291    -0.01600
C1364       C  0.04829386  0.65499292  0.08566799    -0.09600
C1365       C  0.03579252  0.67042331  0.08406833    -0.18400
C1366       C  0.00918951  0.66038562  0.09178080     0.04000
C1367       C  0.99560610  0.63407920  0.10093076     0.18200
C1368       C  0.00845631  0.61911119  0.10274677    -0.19800
C1369       C  0.96910847  0.62261637  0.10818706    -0.21100
C1370       C  0.95543781  0.63646218  0.10609854    -0.19600
C1371       C  0.96805182  0.66235468  0.09717943     0.19600
C1372       C  0.99528836  0.67507147  0.09042682     0.01700
C1373       C  0.00712835  0.70175857  0.08256052    -0.14400
C1374       C  0.99220702  0.71474965  0.08064528    -0.12100
C1375       C  0.96510782  0.70143885  0.08617796     0.01200
C1376       C  0.95330253  0.67540407  0.09464620    -0.24300
H1377       H  0.06870455  0.66338600  0.07984013     0.09200
H1378       H  0.04731043  0.69003881  0.07659078     0.12800
H1379       H  0.99767644  0.59917693  0.10999526     0.11500
H1380       H  0.95871600  0.60258028  0.11521174     0.12700
H1381       H  0.93477696  0.62679593  0.11147278     0.11700
H1382       H  0.02779237  0.71296413  0.07765811     0.08800
H1383       H  0.00162710  0.73490693  0.07397066     0.12100
H1384       H  0.93233756  0.66514320  0.09905848     0.14000
C1385       C  0.19643889  0.76457131  0.21401104    -0.01600
C1386       C  0.16902277  0.75165989  0.21747548    -0.09600
C1387       C  0.15284224  0.72642679  0.20785614    -0.18400
C1388       C  0.16368999  0.71373776  0.19372569     0.04000
C1389       C  0.19161251  0.72731269  0.19000387     0.18200
C1390       C  0.20771150  0.75221182  0.20061839    -0.19800
C1391       C  0.20319175  0.71645490  0.17494474    -0.21100
C1392       C  0.18757165  0.69269424  0.16293005    -0.19600
C1393       C  0.16007532  0.67879391  0.16627286     0.19600
C1394       C  0.14779216  0.68864435  0.18232112     0.01700
C1395       C  0.12010094  0.67307750  0.18595964    -0.14400
C1396       C  0.10510328  0.64952255  0.17315737    -0.12100
C1397       C  0.11712145  0.64089922  0.15621005     0.01200
C1398       C  0.14468636  0.65535722  0.15320511    -0.24300
H1399       H  0.16005349  0.76135815  0.22735265     0.09200
H1400       H  0.13185395  0.71784618  0.21097448     0.12800
H1401       H  0.22892376  0.76269071  0.19734924     0.11500
H1402       H  0.22442134  0.72677757  0.17191468     0.12700
H1403       H  0.19706500  0.68517911  0.15085870     0.11700
H1404       H  0.10943834  0.67866334  0.19845355     0.08800
H1405       H  0.08381636  0.63866297  0.17571174     0.12100
H1406       H  0.15412789  0.64861410  0.14024514     0.14000
C1407       C  0.53888301  0.76129824  0.22374351    -0.01600
C1408       C  0.51317536  0.74982930  0.21445944    -0.09600
C1409       C  0.50359737  0.76571057  0.20465082    -0.18400
C1410       C  0.51955200  0.79368254  0.20406143     0.04000
C1411       C  0.54470535  0.80514908  0.21554362     0.18200
C1412       C  0.55425235  0.78894612  0.22485459    -0.19800
C1413       C  0.56065056  0.83271492  0.21679074    -0.21100
C1414       C  0.55277767  0.84922774  0.20580990    -0.19600
C1415       C  0.52914827  0.83858947  0.19265726     0.19600
C1416       C  0.51203539  0.81064814  0.19174098     0.01700
C1417       C  0.48905350  0.80090865  0.17724659    -0.14400
C1418       C  0.48420026  0.81805123  0.16318591    -0.12100
C1419       C  0.50145465  0.84546857  0.16372904     0.01200
C1420       C  0.52334058  0.85568562  0.17924329    -0.24300
H1421       H  0.50099322  0.72847125  0.21356997     0.09200
H1422       H  0.48385430  0.75554339  0.19726788     0.12800
H1423       H  0.57408668  0.79784925  0.23232146     0.11500
H1424       H  0.57963428  0.84157734  0.22590118     0.12700
H1425       H  0.56586046  0.87046818  0.20669758     0.11700
H1426       H  0.47518689  0.78005229  0.17542283     0.08800
H1427       H  0.46715883  0.80975050  0.15130752     0.12100
H1428       H  0.53698733  0.87685532  0.17945737     0.14000
C1429       C  0.43844001  0.54198854  0.12812502    -0.01600
C1430       C  0.43077723  0.56117827  0.13115472    -0.09600
C1431       C  0.44870934  0.58634227  0.14020919    -0.18400
C1432       C  0.47503964  0.59308876  0.14624369     0.04000
C1433       C  0.48309274  0.57406504  0.14137301     0.18200
C1434       C  0.46477448  0.54879664  0.13272337    -0.19800
C1435       C  0.50918063  0.58002690  0.14586467    -0.21100
C1436       C  0.52727554  0.60411767  0.15612448    -0.19600
C1437       C  0.51957590  0.62261328  0.16266188     0.19600
C1438       C  0.49341431  0.61753839  0.15762693     0.01700
C1439       C  0.48640392  0.63646360  0.16551223    -0.14400
C1440       C  0.50405450  0.65852566  0.17907119    -0.12100
C1441       C  0.52947092  0.66297348  0.18437665     0.01200
C1442       C  0.53745052  0.64546557  0.17547362    -0.24300
H1443       H  0.41055275  0.55634514  0.12749307     0.09200
H1444       H  0.44132402  0.59996093  0.14256426     0.12800
H1445       H  0.47090979  0.53411576  0.12994769     0.11500
H1446       H  0.51551087  0.56572868  0.14183828     0.12700
H1447       H  0.54716643  0.60787536  0.15982615     0.11700
H1448       H  0.46699966  0.63406583  0.16257274     0.08800
H1449       H  0.49751906  0.67175228  0.18616770     0.12100
H1450       H  0.55694780  0.64861147  0.18010606     0.14000
C1451       C  0.77436564  0.53362214  0.28970200    -0.01600
C1452       C  0.76458056  0.50721489  0.29651441    -0.09600
C1453       C  0.78173532  0.49879376  0.30552033    -0.18400
C1454       C  0.80929960  0.51665146  0.30761948     0.04000
C1455       C  0.81922476  0.54268186  0.29834422     0.18200
C1456       C  0.80173125  0.55101150  0.28995941    -0.19800
C1457       C  0.84647541  0.56058184  0.29831389    -0.21100
C1458       C  0.86409330  0.55367155  0.30843430    -0.19600
C1459       C  0.85479547  0.52908319  0.31967980     0.19600
C1460       C  0.82725582  0.51009932  0.31935785     0.01700
C1461       C  0.81873958  0.48625845  0.33233206    -0.14400
C1462       C  0.83656562  0.48231004  0.34626307    -0.12100
C1463       C  0.86351808  0.50135848  0.34684638     0.01200
C1464       C  0.87268916  0.52415047  0.33268564    -0.24300
H1465       H  0.74347571  0.49340522  0.29602659     0.09200
H1466       H  0.77287862  0.47834370  0.31098854     0.12800
H1467       H  0.80936268  0.57133334  0.28411485     0.11500
H1468       H  0.85418382  0.58027830  0.29082831     0.12700
H1469       H  0.88502560  0.56819445  0.30855461     0.11700
H1470       H  0.79820159  0.47105527  0.33326585     0.08800
H1471       H  0.82912845  0.46462492  0.35726549     0.12100
H1472       H  0.89346196  0.53915232  0.33352409     0.14000
C1473       C  0.86674211  0.68632838  0.12755093    -0.01600
C1474       C  0.87136154  0.69647388  0.15112702    -0.09600
C1475       C  0.85476308  0.68187320  0.17014806    -0.18400
C1476       C  0.83271416  0.65643238  0.16623759     0.04000
C1477       C  0.82832322  0.64598915  0.14236379     0.18200
C1478       C  0.84528173  0.66090123  0.12336610    -0.19800
C1479       C  0.80688017  0.62082030  0.13753751    -0.21100
C1480       C  0.78946367  0.60587155  0.15586620    -0.19600
C1481       C  0.79302518  0.61571672  0.17948993     0.19600
C1482       C  0.81476601  0.64109439  0.18507100     0.01700
C1483       C  0.81742090  0.65008148  0.20922474    -0.14400
C1484       C  0.79920406  0.63463209  0.22697027    -0.12100
C1485       C  0.77773982  0.60969149  0.22139917     0.01200
C1486       C  0.77485408  0.60033617  0.19757208    -0.24300
H1487       H  0.88787774  0.71596746  0.15496616     0.09200
H1488       H  0.85970110  0.69118387  0.18765657     0.12800
H1489       H  0.84155482  0.65275878  0.10523009     0.11500
H1490       H  0.80345175  0.61269013  0.11941069     0.12700
H1491       H  0.77297943  0.58651522  0.15149201     0.11700
H1492       H  0.83329158  0.66900012  0.21504362     0.08800
H1493       H  0.80202539  0.64233812  0.24521823     0.12100
H1494       H  0.75836828  0.58103731  0.19301420     0.14000
C1495       C  0.61092881  0.67106504  0.24695998    -0.01600
C1496       C  0.62935593  0.67319048  0.22937861    -0.09600
C1497       C  0.64232417  0.65844399  0.23098921    -0.18400
C1498       C  0.63758254  0.64105003  0.25054701     0.04000
C1499       C  0.61910068  0.63907089  0.26854548     0.18200
C1500       C  0.60571129  0.65370453  0.26643541    -0.19800
C1501       C  0.61443248  0.62281644  0.28872972    -0.21100
C1502       C  0.62813389  0.60897407  0.29172659    -0.19600
C1503       C  0.64641083  0.61049207  0.27433353     0.19600
C1504       C  0.65093037  0.62602335  0.25315913     0.01700
C1505       C  0.66873348  0.62590823  0.23562938    -0.14400
C1506       C  0.68210766  0.61174120  0.23940688    -0.12100
C1507       C  0.67840138  0.59750833  0.26074842     0.01200
C1508       C  0.66045405  0.59679662  0.27810174    -0.24300
H1509       H  0.63378560  0.68633799  0.21407126     0.09200
H1510       H  0.65630724  0.66148072  0.21680420     0.12800
H1511       H  0.59164740  0.65198919  0.28023352     0.11500
H1512       H  0.60041576  0.62116267  0.30254061     0.12700
H1513       H  0.62440741  0.59698333  0.30779934     0.11700
H1514       H  0.67277828  0.63657219  0.21881474     0.08800
H1515       H  0.69601992  0.61252613  0.22588522     0.12100
H1516       H  0.65758141  0.58568032  0.29464252     0.14000
C1517       C  0.67225941  0.51926126  0.32798367    -0.01600
C1518       C  0.66384505  0.53175114  0.34460868    -0.09600
C1519       C  0.64259882  0.51685335  0.36015282    -0.18400
C1520       C  0.62926986  0.48883189  0.35966803     0.04000
C1521       C  0.63953321  0.47638351  0.34429420     0.18200
C1522       C  0.66050529  0.49160389  0.32832177    -0.19800
C1523       C  0.62823699  0.44878879  0.34440492    -0.21100
C1524       C  0.60603354  0.43314186  0.35852082    -0.19600
C1525       C  0.59401903  0.44465297  0.37216969     0.19600
C1526       C  0.60559813  0.47271372  0.37312596     0.01700
C1527       C  0.59191735  0.48332422  0.38605897    -0.14400
C1528       C  0.56699188  0.46675687  0.39609552    -0.12100
C1529       C  0.55543715  0.43922463  0.39449266     0.01200
C1530       C  0.56950197  0.42823246  0.38346972    -0.24300
H1531       H  0.67295242  0.55314564  0.34483041     0.09200
H1532       H  0.63689980  0.52781546  0.37215787     0.12800
H1533       H  0.66741724  0.48190941  0.31582301     0.11500
H1534       H  0.63630859  0.43919939  0.33311811     0.12700
H1535       H  0.59742255  0.41180401  0.35779317     0.11700
H1536       H  0.59914911  0.50430559  0.38743327     0.08800
H1537       H  0.55620823  0.47550509  0.40442682     0.12100
H1538       H  0.56027499  0.40687446  0.38183139     0.14000
C1539       C  0.11899391  0.46085725  0.65989357    -0.01600
C1540       C  0.14605043  0.47910913  0.66229213    -0.09600
C1541       C  0.16234656  0.47362439  0.67701205    -0.18400
C1542       C  0.15222885  0.44904127  0.68910701     0.04000
C1543       C  0.12470576  0.43058431  0.68657121     0.18200
C1544       C  0.10830054  0.43694162  0.67266511    -0.19800
C1545       C  0.11397645  0.40533587  0.69685045    -0.21100
C1546       C  0.13015930  0.39751604  0.70857154    -0.19600
C1547       C  0.15734858  0.41505630  0.71110761     0.19600
C1548       C  0.16862121  0.44147369  0.70241721     0.01700
C1549       C  0.19591133  0.45882899  0.70693876    -0.14400
C1550       C  0.21161855  0.44974154  0.71806969    -0.12100
C1551       C  0.20073720  0.42312379  0.72469070     0.01200
C1552       C  0.17348660  0.40605765  0.72165085    -0.24300
H1553       H  0.15476760  0.49754066  0.65227544     0.09200
H1554       H  0.18302801  0.48843385  0.67759793     0.12800
H1555       H  0.08752670  0.42243641  0.67032967     0.11500
H1556       H  0.09306439  0.39114269  0.69498102     0.12700
H1557       H  0.12137682  0.37747319  0.71547468     0.11700
H1558       H  0.20567470  0.47942721  0.70185351     0.08800
H1559       H  0.23262672  0.46325845  0.72038286     0.12100
H1560       H  0.16493094  0.38549488  0.72706225     0.14000
C1561       C  0.30435330  0.44082539  0.69334614    -0.01600
C1562       C  0.31354819  0.43088254  0.67491241    -0.09600
C1563       C  0.33578261  0.44799834  0.66112616    -0.18400
C1564       C  0.34936610  0.47569445  0.66537106     0.04000
C1565       C  0.33860490  0.48568219  0.68289944     0.18200
C1566       C  0.31653963  0.46828753  0.69673281    -0.19800
C1567       C  0.35039328  0.51294046  0.68712114    -0.21100
C1568       C  0.37328892  0.53059350  0.67487868    -0.19600
C1569       C  0.38532810  0.52137020  0.65856690     0.19600
C1570       C  0.37356338  0.49378874  0.65346403     0.01700
C1571       C  0.38730394  0.48550360  0.63767597    -0.14400
C1572       C  0.41211700  0.50373058  0.62825635    -0.12100
C1573       C  0.42347079  0.53070614  0.63357686     0.01200
C1574       C  0.40976403  0.53952014  0.64820114    -0.24300
H1575       H  0.30426600  0.40972968  0.67186568     0.09200
H1576       H  0.34209420  0.43897171  0.64753164     0.12800
H1577       H  0.30917897  0.47615324  0.71068653     0.11500
H1578       H  0.34206251  0.52064859  0.70027795     0.12700
H1579       H  0.38214796  0.55155525  0.67882724     0.11700
H1580       H  0.37993563  0.46499142  0.63311897     0.08800
H1581       H  0.42275401  0.49668463  0.61713304     0.12100
H1582       H  0.41891701  0.56041272  0.65264564     0.14000
C1583       C  0.43295187  0.19420431  0.79362151    -0.01600
C1584       C  0.45970818  0.20203084  0.79704084    -0.09600
C1585       C  0.46702861  0.18432767  0.80694338    -0.18400
C1586       C  0.44761976  0.15820269  0.81355836     0.04000
C1587       C  0.42074129  0.14996651  0.80808910     0.18200
C1588       C  0.41374936  0.16792445  0.79840419    -0.19800
C1589       C  0.40074435  0.12413345  0.81320489    -0.21100
C1590       C  0.40664636  0.10641927  0.82458576    -0.19600
C1591       C  0.43260488  0.11427612  0.83162153     0.19600
C1592       C  0.45358450  0.14022666  0.82612518     0.01700
C1593       C  0.47921740  0.14743176  0.83473498    -0.14400
C1594       C  0.48340910  0.13009909  0.84922690    -0.12100
C1595       C  0.46252057  0.10480720  0.85472861     0.01200
C1596       C  0.43739101  0.09671977  0.84529544    -0.24300
H1597       H  0.47486503  0.22221893  0.79322828     0.09200
H1598       H  0.48791299  0.19175410  0.80966809     0.12800
H1599       H  0.39301885  0.16164816  0.79531044     0.11500
H1600       H  0.38026467  0.11772684  0.80880589     0.12700
H1601       H  0.39060841  0.08671730  0.82872273     0.11700
H1602       H  0.49609665  0.16674119  0.83155004     0.08800
H1603       H  0.50292803  0.13670392  0.85669920     0.12100
H1604       H  0.42111741  0.07734148  0.85007248     0.14000
C1605       C  0.29584607  0.35862333  0.75787193    -0.01600
C1606       C  0.32273963  0.37352301  0.76396335    -0.09600
C1607       C  0.33856481  0.36145431  0.76546429    -0.18400
C1608       C  0.32773843  0.33392316  0.76124232     0.04000
C1609       C  0.30013794  0.31888507  0.75627041     0.18200
C1610       C  0.28475161  0.33129267  0.75436160    -0.19800
C1611       C  0.28790595  0.29146077  0.75303523    -0.21100
C1612       C  0.30242880  0.27844603  0.75469549    -0.19600
C1613       C  0.32970321  0.29259624  0.75899548     0.19600
C1614       C  0.34299958  0.32059621  0.76190516     0.01700
C1615       C  0.37088191  0.33379856  0.76512513    -0.14400
C1616       C  0.38468544  0.31959611  0.76611088    -0.12100
C1617       C  0.37106056  0.29192548  0.76430174     0.01200
C1618       C  0.34366110  0.27868705  0.76058346    -0.24300
H1619       H  0.33175362  0.39468811  0.76678375     0.09200
H1620       H  0.35915983  0.37407886  0.76995622     0.12800
H1621       H  0.26386839  0.31952479  0.74999025     0.11500
H1622       H  0.26685339  0.27992381  0.74936166     0.12700
H1623       H  0.29226075  0.25712732  0.75237743     0.11700
H1624       H  0.38245669  0.35503098  0.76694191     0.08800
H1625       H  0.40586791  0.33015314  0.76922867     0.12100
H1626       H  0.33307379  0.25724981  0.75909954     0.14000
C1627       C  0.45126827  0.29842713  0.83044307    -0.01600
C1628       C  0.47839349  0.30688442  0.83173691    -0.09600
C1629       C  0.49535680  0.32875026  0.84584991    -0.18400
C1630       C  0.48578230  0.34356392  0.85842175     0.04000
C1631       C  0.45811047  0.33460519  0.85723075     0.18200
C1632       C  0.44109191  0.31178897  0.84391556    -0.19800
C1633       C  0.44778885  0.34931530  0.86816359    -0.21100
C1634       C  0.46448787  0.37346772  0.87914187    -0.19600
C1635       C  0.49183266  0.38309310  0.88020368     0.19600
C1636       C  0.50279340  0.36776144  0.87087386     0.01700
C1637       C  0.53038467  0.37778946  0.87384045    -0.14400
C1638       C  0.54657077  0.40278972  0.88412098    -0.12100
C1639       C  0.53583095  0.41858904  0.89140989     0.01200
C1640       C  0.50839846  0.40838234  0.88990385    -0.24300
H1641       H  0.48663231  0.29689006  0.82124531     0.09200
H1642       H  0.51605451  0.33439558  0.84554122     0.12800
H1643       H  0.42019927  0.30563352  0.84250130     0.11500
H1644       H  0.42675966  0.34263391  0.86734283     0.12700
H1645       H  0.45598084  0.38489220  0.88656615     0.11700
H1646       H  0.54002676  0.36687981  0.86816893     0.08800
H1647       H  0.56772900  0.41031613  0.88530964     0.12100
H1648       H  0.49999305  0.42046158  0.89590139     0.14000
C1649       C  0.44397057  0.87787043  0.62211695    -0.01600
C1650       C  0.43654489  0.85122009  0.62538163    -0.09600
C1651       C  0.45474355  0.84417785  0.63445860    -0.18400
C1652       C  0.48101886  0.86376824  0.64035027     0.04000
C1653       C  0.48884485  0.89057503  0.63499600     0.18200
C1654       C  0.47032020  0.89732543  0.62623026    -0.19800
C1655       C  0.51485175  0.91067607  0.63931535    -0.21100
C1656       C  0.53308642  0.90494669  0.64993752    -0.19600
C1657       C  0.52559069  0.87907110  0.65703098     0.19600
C1658       C  0.49951308  0.85800199  0.65215951     0.01700
C1659       C  0.49265050  0.83245799  0.66073373    -0.14400
C1660       C  0.51035831  0.82843782  0.67476443    -0.12100
C1661       C  0.53571303  0.84939057  0.67987095     0.01200
C1662       C  0.54354981  0.87445349  0.67030199    -0.24300
H1663       H  0.41629294  0.83590363  0.62207898     0.09200
H1664       H  0.44757255  0.82333417  0.63708464     0.12800
H1665       H  0.47622433  0.91798275  0.62326727     0.11500
H1666       H  0.52098612  0.93109504  0.63492929     0.12700
H1667       H  0.55289891  0.92106569  0.65353433     0.11700
H1668       H  0.47327992  0.81551387  0.65802567     0.08800
H1669       H  0.50388674  0.80902517  0.68243363     0.12100
H1670       H  0.56294493  0.89082752  0.67483979     0.14000
C1671       C  0.33494479  0.85261223  0.65758714    -0.01600
C1672       C  0.32666959  0.86250958  0.67683159    -0.09600
C1673       C  0.30373848  0.84580084  0.69006902    -0.18400
C1674       C  0.28834398  0.81846711  0.68449084     0.04000
C1675       C  0.29764939  0.80837333  0.66572592     0.18200
C1676       C  0.32054881  0.82538815  0.65252161    -0.19800
C1677       C  0.28367659  0.78143865  0.65974235    -0.21100
C1678       C  0.26026574  0.76427406  0.67163460    -0.19600
C1679       C  0.24997042  0.77364070  0.68959502     0.19600
C1680       C  0.26383761  0.80087117  0.69637803     0.01700
C1681       C  0.25199256  0.80937485  0.71407513    -0.14400
C1682       C  0.22710746  0.79181443  0.72387434    -0.12100
C1683       C  0.21361703  0.76516779  0.71694953     0.01200
C1684       C  0.22532368  0.75607679  0.70014404    -0.24300
H1685       H  0.33731579  0.88346644  0.68102152     0.09200
H1686       H  0.29834724  0.85491996  0.70432938     0.12800
H1687       H  0.32684055  0.81745998  0.63774930     0.11500
H1688       H  0.29076021  0.77361712  0.64553380     0.12700
H1689       H  0.24980715  0.74360020  0.66634245     0.11700
H1690       H  0.26103031  0.82965893  0.72007291     0.08800
H1691       H  0.21802581  0.79922013  0.73652823     0.12100
H1692       H  0.21453090  0.73556525  0.69431937     0.14000
C1693       C  0.21405161  0.10191784  0.55697660    -0.01600
C1694       C  0.23165590  0.12916123  0.55818431    -0.09600
C1695       C  0.22562870  0.14707761  0.54700380    -0.18400
C1696       C  0.20208016  0.13806505  0.53344006     0.04000
C1697       C  0.18437075  0.11025399  0.53226970     0.18200
C1698       C  0.19018066  0.09256859  0.54451626    -0.19800
C1699       C  0.16159912  0.10016449  0.51795423    -0.21100
C1700       C  0.15646683  0.11700620  0.50403563    -0.19600
C1701       C  0.17353926  0.14442119  0.50467510     0.19600
C1702       C  0.19607634  0.15547486  0.52005238     0.01700
C1703       C  0.21177371  0.18342904  0.52101034    -0.14400
C1704       C  0.20605324  0.19957257  0.50637713    -0.12100
C1705       C  0.18485505  0.18839522  0.49014969     0.01200
C1706       C  0.16843963  0.16084554  0.48966328    -0.24300
H1707       H  0.25046865  0.13656849  0.56737874     0.09200
H1708       H  0.24034566  0.16773619  0.54835490     0.12800
H1709       H  0.17696353  0.07137162  0.54301065     0.11500
H1710       H  0.14809123  0.07901206  0.51691210     0.12700
H1711       H  0.13908733  0.10850305  0.49255983     0.11700
H1712       H  0.22859249  0.19338736  0.53286289     0.08800
H1713       H  0.21884210  0.22085764  0.50712191     0.12100
H1714       H  0.15169053  0.15215627  0.47741170     0.14000
C1715       C  0.26146384  0.99475670  0.59190018    -0.01600
C1716       C  0.26293965  0.98102494  0.57172447    -0.09600
C1717       C  0.27530511  0.96575854  0.57314522    -0.18400
C1718       C  0.28738341  0.96442437  0.59482048     0.04000
C1719       C  0.28470591  0.97747174  0.61561133     0.18200
C1720       C  0.27138981  0.99213518  0.61407166    -0.19800
C1721       C  0.29654344  0.97697167  0.63743804    -0.21100
C1722       C  0.31210169  0.96495874  0.63878533    -0.19600
C1723       C  0.31599618  0.95295523  0.61839392     0.19600
C1724       C  0.30309141  0.95177290  0.59628687     0.01700
C1725       C  0.30725113  0.93875943  0.57643230    -0.14400
C1726       C  0.32439638  0.92840225  0.57822847    -0.12100
C1727       C  0.33801222  0.93085539  0.59970779     0.01200
C1728       C  0.33329911  0.94268394  0.61984351    -0.24300
H1729       H  0.25520718  0.98286516  0.55446237     0.09200
H1730       H  0.27603446  0.95621179  0.55668697     0.12800
H1731       H  0.27043513  0.00303068  0.62962622     0.11500
H1732       H  0.29446497  0.98667986  0.65337669     0.12700
H1733       H  0.32164664  0.96558023  0.65577592     0.11700
H1734       H  0.29780872  0.93649727  0.55918477     0.08800
H1735       H  0.32754489  0.91906960  0.56256660     0.12100
H1736       H  0.34334689  0.94410240  0.63674628     0.14000
C1737       C  0.09782746  0.87743477  0.46390079    -0.01600
C1738       C  0.12330589  0.89311625  0.45443017    -0.09600
C1739       C  0.14091764  0.91754803  0.46496941    -0.18400
C1740       C  0.13364219  0.92672037  0.48578598     0.04000
C1741       C  0.10732743  0.91093981  0.49473309     0.18200
C1742       C  0.08974352  0.88668924  0.48368065    -0.19800
C1743       C  0.09899533  0.91886632  0.51528857    -0.21100
C1744       C  0.11644430  0.94163723  0.52774773    -0.19600
C1745       C  0.14269656  0.95710071  0.51999030     0.19600
C1746       C  0.15167432  0.95029227  0.49865632     0.01700
C1747       C  0.17848550  0.96692865  0.49174917    -0.14400
C1748       C  0.19582740  0.98856672  0.50610639    -0.12100
C1749       C  0.18701246  0.99436830  0.52768030     0.01200
C1750       C  0.16020593  0.97888352  0.53404112    -0.24300
H1751       H  0.12990528  0.88601520  0.43926362     0.09200
H1752       H  0.16033188  0.92837724  0.45692703     0.12800
H1753       H  0.07012813  0.87430129  0.49123358     0.11500
H1754       H  0.07897863  0.90701840  0.52212887     0.12700
H1755       H  0.10948936  0.94686870  0.54392905     0.11700
H1756       H  0.18675657  0.96336891  0.47565425     0.08800
H1757       H  0.21639383  0.00024209  0.50069488     0.12100
H1758       H  0.15298389  0.98330854  0.55051424     0.14000
C1759       C  0.28623099  0.10161328  0.63004116    -0.01600
C1760       C  0.31155365  0.12256279  0.62459404    -0.09600
C1761       C  0.32695104  0.14099677  0.64232415    -0.18400
C1762       C  0.31749571  0.13908104  0.66629700     0.04000
C1763       C  0.29194359  0.11758845  0.67180255     0.18200
C1764       C  0.27669798  0.09924991  0.65381041    -0.19800
C1765       C  0.28162068  0.11455870  0.69522444    -0.21100
C1766       C  0.29607552  0.13249597  0.71336972    -0.19600
C1767       C  0.32122906  0.15400249  0.70858882     0.19600
C1768       C  0.33233754  0.15764628  0.68498370     0.01700
C1769       C  0.35776422  0.17976291  0.68116157    -0.14400
C1770       C  0.37153085  0.19735860  0.69991757    -0.12100
C1771       C  0.36060273  0.19367440  0.72320145     0.01200
C1772       C  0.33534557  0.17188220  0.72734109    -0.24300
H1773       H  0.31944681  0.12492736  0.60644354     0.09200
H1774       H  0.34614296  0.15657916  0.63664912     0.12800
H1775       H  0.25718061  0.08310823  0.65838388     0.11500
H1776       H  0.26216139  0.09818684  0.69954921     0.12700
H1777       H  0.28746529  0.12954791  0.73128798     0.11700
H1778       H  0.36760288  0.18404635  0.66386337     0.08800
H1779       H  0.39100260  0.21394198  0.69610403     0.12100
H1780       H  0.32662960  0.16873273  0.74523491     0.14000
C1781       C  0.87478523  0.44444285  0.89010884    -0.01600
C1782       C  0.89252712  0.47169432  0.89136601    -0.09600
C1783       C  0.88630659  0.48984755  0.88092192    -0.18400
C1784       C  0.86240347  0.48108715  0.86799903     0.04000
C1785       C  0.84427263  0.45332014  0.86729869     0.18200
C1786       C  0.85031478  0.43540936  0.87883887    -0.19800
C1787       C  0.82088590  0.44342140  0.85391475    -0.21100
C1788       C  0.81561200  0.46031671  0.84026086    -0.19600
C1789       C  0.83326125  0.48762073  0.84012969     0.19600
C1790       C  0.85645466  0.49861406  0.85464766     0.01700
C1791       C  0.87294925  0.52654559  0.85450858    -0.14400
C1792       C  0.86733080  0.54260593  0.83953550    -0.12100
C1793       C  0.84536599  0.53131448  0.82415871     0.01200
C1794       C  0.82816774  0.50390187  0.82494640    -0.24300
H1795       H  0.91169997  0.47892344  0.89983119     0.09200
H1796       H  0.90114840  0.51046012  0.88220901     0.12800
H1797       H  0.83686455  0.41425514  0.87740331     0.11500
H1798       H  0.80701506  0.42232935  0.85329062     0.12700
H1799       H  0.79775692  0.45190009  0.82941863     0.11700
H1800       H  0.89046261  0.53649276  0.86553326     0.08800
H1801       H  0.88084150  0.56377406  0.83918825     0.12100
H1802       H  0.81093933  0.49512341  0.81325470     0.14000
C1803       C  0.76912079  0.22203952  0.78983902    -0.01600
C1804       C  0.75957622  0.23943760  0.79502530    -0.09600
C1805       C  0.77617840  0.26420649  0.80570102    -0.18400
C1806       C  0.80301120  0.27238180  0.81114750     0.04000
C1807       C  0.81289576  0.25534702  0.80406348     0.18200
C1808       C  0.79591823  0.23042538  0.79395885    -0.19800
C1809       C  0.83955888  0.26291727  0.80764985    -0.21100
C1810       C  0.85661764  0.28680149  0.81878371    -0.19600
C1811       C  0.84724096  0.30328818  0.82742608     0.19600
C1812       C  0.82027536  0.29636763  0.82384879     0.01700
C1813       C  0.81153790  0.31295283  0.83439138    -0.14400
C1814       C  0.82851025  0.33454262  0.84888478    -0.12100
C1815       C  0.85492265  0.34097305  0.85238826     0.01200
C1816       C  0.86439087  0.32586058  0.84089181    -0.24300
H1817       H  0.73895858  0.23340525  0.79182064     0.09200
H1818       H  0.76748793  0.27646145  0.80966881     0.12800
H1819       H  0.80352124  0.21719908  0.78959077     0.11500
H1820       H  0.84723963  0.25011818  0.80201188     0.12700
H1821       H  0.87708291  0.29190332  0.82152052     0.11700
H1822       H  0.79135271  0.30887398  0.83282559     0.08800
H1823       H  0.82080351  0.34590346  0.85790867     0.12100
H1824       H  0.88465586  0.33044768  0.84408422     0.14000
C1825       C  0.94577743  0.44117443  0.96176716    -0.01600
C1826       C  0.93836499  0.43348359  0.98582424    -0.09600
C1827       C  0.95254726  0.45024341  0.00492755    -0.18400
C1828       C  0.97464239  0.47556213  0.00058310     0.04000
C1829       C  0.98198549  0.48331261  0.97611331     0.18200
C1830       C  0.96773766  0.46609568  0.95708398    -0.19800
C1831       C  0.00344616  0.50827627  0.97072934    -0.21100
C1832       C  0.01806170  0.52566465  0.98912140    -0.19600
C1833       C  0.01165907  0.51850051  0.01337870     0.19600
C1834       C  0.98975257  0.49344417  0.01954205     0.01700
C1835       C  0.98409688  0.48742695  0.04439795    -0.14400
C1836       C  0.99976683  0.50537913  0.06227797    -0.12100
C1837       C  0.02161695  0.52981004  0.05605446     0.01200
C1838       C  0.02726266  0.53626667  0.03152273    -0.24300
H1839       H  0.92149336  0.41430462  0.98995767     0.09200
H1840       H  0.94562899  0.44282001  0.02287425     0.12800
H1841       H  0.97351017  0.47233955  0.93853471     0.11500
H1842       H  0.00903152  0.51438333  0.95213405     0.12700
H1843       H  0.03464447  0.54481141  0.98432526     0.11700
H1844       H  0.96780291  0.46895781  0.05064033     0.08800
H1845       H  0.99494295  0.49992462  0.08108454     0.12100
H1846       H  0.04395079  0.55525079  0.02645928     0.14000
C1847       C  0.09659851  0.20687281  0.96051155    -0.01600
C1848       C  0.12384721  0.22330678  0.95711200    -0.09600
C1849       C  0.14186907  0.21589947  0.96561846    -0.18400
C1850       C  0.13309586  0.19204457  0.97862399     0.04000
C1851       C  0.10528361  0.17543110  0.98196322     0.18200
C1852       C  0.08732704  0.18265722  0.97238701    -0.19800
C1853       C  0.09562191  0.15237037  0.99584754    -0.21100
C1854       C  0.11297765  0.14601456  0.00740012    -0.19600
C1855       C  0.14041273  0.16212789  0.00475382     0.19600
C1856       C  0.15090505  0.18479083  0.98955036     0.01700
C1857       C  0.17878331  0.19952879  0.98653648    -0.14400
C1858       C  0.19552027  0.19310168  0.99948048    -0.12100
C1859       C  0.18502732  0.17201618  0.01586696     0.01200
C1860       C  0.15745925  0.15618883  0.01790679    -0.24300
H1861       H  0.13126276  0.24230227  0.94823328     0.09200
H1862       H  0.16254693  0.22980951  0.96269747     0.12800
H1863       H  0.06622000  0.17027297  0.97552107     0.11500
H1864       H  0.07449839  0.13965026  0.99850711     0.12700
H1865       H  0.10487861  0.12853499  0.01875041     0.11700
H1866       H  0.18824027  0.21632529  0.97459057     0.08800
H1867       H  0.21678338  0.20553288  0.99762014     0.12100
H1868       H  0.14925473  0.13961098  0.03037227     0.14000
C1869       C  0.09930977  0.27810940  0.88864424    -0.01600
C1870       C  0.09441098  0.26712232  0.86533372    -0.09600
C1871       C  0.11255063  0.27949130  0.84653064    -0.18400
C1872       C  0.13645624  0.30344971  0.85039103     0.04000
C1873       C  0.14126898  0.31460091  0.87402485     0.18200
C1874       C  0.12280153  0.30197442  0.89275747    -0.19800
C1875       C  0.16456854  0.33828771  0.87890754    -0.21100
C1876       C  0.18316970  0.35132144  0.86081439    -0.19600
C1877       C  0.17899106  0.34101814  0.83734245     0.19600
C1878       C  0.15569655  0.31684354  0.83173352     0.01700
C1879       C  0.15273130  0.30733232  0.80769067    -0.14400
C1880       C  0.17178622  0.32158047  0.78994705    -0.12100
C1881       C  0.19442421  0.34570212  0.79550620     0.01200
C1882       C  0.19795323  0.35503903  0.81938546    -0.24300
H1883       H  0.07646959  0.24868066  0.86155985     0.09200
H1884       H  0.10730523  0.26976033  0.82919915     0.12800
H1885       H  0.12692086  0.31066271  0.91068356     0.11500
H1886       H  0.16841221  0.34687025  0.89686568     0.12700
H1887       H  0.20093458  0.36971236  0.86520283     0.11700
H1888       H  0.13581420  0.28905896  0.80197301     0.08800
H1889       H  0.16856331  0.31381548  0.77170392     0.12100
H1890       H  0.21543478  0.37357425  0.82404529     0.14000
C1891       C  0.00165575  0.27137912  0.93037991    -0.01600
C1892       C  0.97393867  0.25702165  0.92937095    -0.09600
C1893       C  0.95921561  0.27022690  0.92788383    -0.18400
C1894       C  0.97198523  0.29826560  0.92690836     0.04000
C1895       C  0.00018308  0.31244007  0.92686289     0.18200
C1896       C  0.01454478  0.29901474  0.92896192    -0.19800
C1897       C  0.01405276  0.34002369  0.92476436    -0.21100
C1898       C  0.00056264  0.35399919  0.92238351    -0.19600
C1899       C  0.97286863  0.34081462  0.92273053     0.19600
C1900       C  0.95803952  0.31285099  0.92559958     0.01700
C1901       C  0.93005679  0.30097200  0.92711205    -0.14400
C1902       C  0.91744200  0.31620951  0.92482142    -0.12100
C1903       C  0.93232030  0.34352133  0.92060717     0.01200
C1904       C  0.95998998  0.35561781  0.91998530    -0.24300
H1905       H  0.96362287  0.23560881  0.93056300     0.09200
H1906       H  0.93794219  0.25806538  0.92740810     0.12800
H1907       H  0.03603031  0.31018664  0.92950537     0.11500
H1908       H  0.03553330  0.35086487  0.92464632     0.12700
H1909       H  0.01190670  0.37533946  0.92037086     0.11700
H1910       H  0.91750129  0.28001058  0.93005817     0.08800
H1911       H  0.89601637  0.30650272  0.92554714     0.12100
H1912       H  0.97166762  0.37685721  0.91723894     0.14000
C1913       C  0.87281772  0.10310504  0.05334276    -0.01600
C1914       C  0.88206861  0.13029640  0.05542564    -0.09600
C1915       C  0.90743369  0.14879174  0.04738878    -0.18400
C1916       C  0.92404204  0.14052718  0.03613052     0.04000
C1917       C  0.91455582  0.11277994  0.03439440     0.18200
C1918       C  0.88940420  0.09442468  0.04350632    -0.19800
C1919       C  0.92962891  0.10347041  0.02246753    -0.21100
C1920       C  0.95327103  0.12100023  0.01111141    -0.19600
C1921       C  0.96275749  0.14831968  0.01189592     0.19600
C1922       C  0.94894196  0.15863818  0.02526016     0.01700
C1923       C  0.96021989  0.18656382  0.02628752    -0.14400
C1924       C  0.98297383  0.20328922  0.01289693    -0.12100
C1925       C  0.99500273  0.19267643  0.99812662     0.01200
C1926       C  0.98536744  0.16529873  0.99842021    -0.24300
H1927       H  0.86933746  0.13726532  0.06289987     0.09200
H1928       H  0.91298766  0.16936575  0.04923978     0.12800
H1929       H  0.88201512  0.07333487  0.04150445     0.11500
H1930       H  0.92257669  0.08240422  0.02109950     0.12700
H1931       H  0.96393593  0.11308070  0.00118937     0.11700
H1932       H  0.95154581  0.19599887  0.03678969     0.08800
H1933       H  0.99021230  0.22442754  0.01296053     0.12100
H1934       H  0.99489930  0.15706802  0.98721892     0.14000
C1935       C  0.53197392  0.09901513  0.38270111    -0.01600
C1936       C  0.54326100  0.12395864  0.37183056    -0.09600
C1937       C  0.52719610  0.13314459  0.36177877    -0.18400
C1938       C  0.49917642  0.11759565  0.36257039     0.04000
C1939       C  0.48795948  0.09300107  0.37504453     0.18200
C1940       C  0.50436167  0.08379110  0.38457975    -0.19800
C1941       C  0.46041943  0.07738179  0.37731987    -0.21100
C1942       C  0.44363690  0.08508637  0.36660122    -0.19600
C1943       C  0.45393431  0.10829854  0.35283951     0.19600
C1944       C  0.48188755  0.12506393  0.35082880     0.01700
C1945       C  0.49127274  0.14782856  0.33610716    -0.14400
C1946       C  0.47376218  0.15274671  0.32280580    -0.12100
C1947       C  0.44632591  0.13570117  0.32417348     0.01200
C1948       C  0.43645294  0.11407270  0.33998033    -0.24300
H1949       H  0.56460127  0.13590605  0.37017578     0.09200
H1950       H  0.53729426  0.15232585  0.35327424     0.12800
H1951       H  0.49564050  0.06447802  0.39312202     0.11500
H1952       H  0.45176515  0.05881138  0.38712547     0.12700
H1953       H  0.42240994  0.07227036  0.36834196     0.11700
H1954       H  0.51206843  0.16155926  0.33358212     0.08800
H1955       H  0.48180058  0.16962083  0.31070772     0.12100
H1956       H  0.41525901  0.10061881  0.34085654     0.14000
C1957       C  0.75621942  0.19569854  0.29064963    -0.01600
C1958       C  0.74461805  0.16835781  0.28700052    -0.09600
C1959       C  0.71923218  0.15101154  0.29589198    -0.18400
C1960       C  0.70505058  0.16055957  0.30955193     0.04000
C1961       C  0.71708376  0.18846264  0.31306254     0.18200
C1962       C  0.74213446  0.20570903  0.30313412    -0.19800
C1963       C  0.70463666  0.19895130  0.32741917    -0.21100
C1964       C  0.68096564  0.18233537  0.33915839    -0.19600
C1965       C  0.66878616  0.15483353  0.33636082     0.19600
C1966       C  0.68007633  0.14347931  0.32089522     0.01700
C1967       C  0.66617452  0.11553537  0.31811308    -0.14400
C1968       C  0.64307928  0.09955242  0.33147134    -0.12100
C1969       C  0.63328071  0.11092418  0.34797537     0.01200
C1970       C  0.64581844  0.13859482  0.34970908    -0.24300
H1971       H  0.75550333  0.16034570  0.27759891     0.09200
H1972       H  0.71171240  0.13019380  0.29267930     0.12800
H1973       H  0.75143402  0.22685723  0.30641831     0.11500
H1974       H  0.71371154  0.22014090  0.33023007     0.12700
H1975       H  0.67229400  0.19106557  0.35080365     0.11700
H1976       H  0.67295205  0.10546989  0.30610856     0.08800
H1977       H  0.63369724  0.07821396  0.32983022     0.12100
H1978       H  0.63813738  0.14755162  0.36225119     0.14000
C1979       C  0.52801725  0.02491437  0.45720187    -0.01600
C1980       C  0.53381563  0.03597490  0.48051432    -0.09600
C1981       C  0.51745564  0.02277251  0.50024361    -0.18400
C1982       C  0.49445556  0.99779924  0.49742828     0.04000
C1983       C  0.48853386  0.98666425  0.47375683     0.18200
C1984       C  0.50521917  0.00017642  0.45403311    -0.19800
C1985       C  0.46597883  0.96202733  0.46987470    -0.21100
C1986       C  0.44923857  0.94809045  0.48893946    -0.19600
C1987       C  0.45456797  0.95836966  0.51244797     0.19600
C1988       C  0.47716796  0.98339799  0.51714792     0.01700
C1989       C  0.48139452  0.99268931  0.54136663    -0.14400
C1990       C  0.46403323  0.97758726  0.56003518    -0.12100
C1991       C  0.44191667  0.95277365  0.55525750     0.01200
C1992       C  0.43737281  0.94351243  0.53129398    -0.24300
H1993       H  0.55123779  0.05505327  0.48364061     0.09200
H1994       H  0.52336702  0.03262423  0.51748817     0.12800
H1995       H  0.50039997  0.99136463  0.43616634     0.11500
H1996       H  0.46126589  0.95340548  0.45193767     0.12700
H1997       H  0.43199329  0.92901385  0.48526162     0.11700
H1998       H  0.49801718  0.01148051  0.54647320     0.08800
H1999       H  0.46810831  0.98527736  0.57831056     0.12100
H2000       H  0.42034542  0.92441575  0.52718276     0.14000
C2001       C  0.76175648  0.86933592  0.45450215    -0.01600
C2002       C  0.74575211  0.84219831  0.45024543    -0.09600
C2003       C  0.75273225  0.82403285  0.45926088    -0.18400
C2004       C  0.77566411  0.83252666  0.47360857     0.04000
C2005       C  0.79184441  0.86023073  0.47779949     0.18200
C2006       C  0.78508310  0.87835231  0.46778942    -0.19800
C2007       C  0.81390057  0.86957879  0.49298215    -0.21100
C2008       C  0.81950403  0.85197605  0.50509282    -0.19600
C2009       C  0.80367256  0.82461917  0.50174128     0.19600
C2010       C  0.78224998  0.81449908  0.48512843     0.01700
C2011       C  0.76794273  0.78673425  0.48139567    -0.14400
C2012       C  0.77329497  0.76968152  0.49510947    -0.12100
C2013       C  0.79288250  0.77973950  0.51297201     0.01200
C2014       C  0.80856276  0.80726442  0.51560037    -0.24300
H2015       H  0.72735263  0.83496218  0.44036920     0.09200
H2016       H  0.73913560  0.80341917  0.45568088     0.12800
H2017       H  0.79705738  0.89934778  0.47161276     0.11500
H2018       H  0.82631330  0.89062053  0.49625856     0.12700
H2019       H  0.83610511  0.85981082  0.51748251     0.11700
H2020       H  0.75225263  0.77760828  0.46828672     0.08800
H2021       H  0.76114113  0.74848958  0.49258556     0.12100
H2022       H  0.82414740  0.81520428  0.52906958     0.14000
C2023       C  0.69639380  0.96255396  0.42077809    -0.01600
C2024       C  0.71043647  0.98937948  0.41440715    -0.09600
C2025       C  0.69733447  0.00416274  0.41257796    -0.18400
C2026       C  0.66967245  0.99226952  0.41681060     0.04000
C2027       C  0.65553839  0.96466180  0.42184386     0.18200
C2028       C  0.66894368  0.95032918  0.42400483    -0.19800
C2029       C  0.62805572  0.95140588  0.42501509    -0.21100
C2030       C  0.61409005  0.96496655  0.42331802    -0.19600
C2031       C  0.62735728  0.99225246  0.41910260     0.19600
C2032       C  0.65538923  0.00651629  0.41620877     0.01700
C2033       C  0.66772608  0.03434591  0.41321781    -0.14400
C2034       C  0.65268125  0.04721678  0.41252308    -0.12100
C2035       C  0.62502679  0.03269043  0.41433643     0.01200
C2036       C  0.61257493  0.00530144  0.41770455    -0.24300
H2037       H  0.73168835  0.99915136  0.41171856     0.09200
H2038       H  0.70928712  0.02479893  0.40790161     0.12800
H2039       H  0.65790218  0.92942228  0.42849627     0.11500
H2040       H  0.61723855  0.93032693  0.42872469     0.12700
H2041       H  0.59275716  0.95406991  0.42563335     0.11700
H2042       H  0.68890945  0.04661775  0.41146883     0.08800
H2043       H  0.66258862  0.06843206  0.40966582     0.12100
H2044       H  0.59114039  0.99406205  0.41919470     0.14000
C2045       C  0.78056739  0.97648282  0.48475748    -0.01600
C2046       C  0.77369876  0.97928727  0.50848610    -0.09600
C2047       C  0.79092301  0.00129880  0.52262489    -0.18400
C2048       C  0.81553943  0.02128462  0.51328994     0.04000
C2049       C  0.82219231  0.01808657  0.48924447     0.18200
C2050       C  0.80501640  0.99597601  0.47553993    -0.19800
C2051       C  0.84586755  0.03716186  0.47863456    -0.21100
C2052       C  0.86315090  0.05973890  0.49124059    -0.19600
C2053       C  0.85733155  0.06370883  0.51486373     0.19600
C2054       C  0.83368001  0.04452213  0.52652250     0.01700
C2055       C  0.82930131  0.04981820  0.55064723    -0.14400
C2056       C  0.84727561  0.07358342  0.56221518    -0.12100
C2057       C  0.86993877  0.09250583  0.55004474     0.01200
C2058       C  0.87492962  0.08725437  0.52660300    -0.24300
H2059       H  0.75487796  0.96462619  0.51604715     0.09200
H2060       H  0.78436919  0.00236888  0.54063802     0.12800
H2061       H  0.81072508  0.99426396  0.45723235     0.11500
H2062       H  0.85093606  0.03476034  0.46028220     0.12700
H2063       H  0.88116850  0.07431922  0.48235846     0.11700
H2064       H  0.81199153  0.03618673  0.56078314     0.08800
H2065       H  0.84295532  0.07762191  0.58028524     0.12100
H2066       H  0.89240325  0.10209291  0.51715893     0.14000
C2067       C  0.68516488  0.86241601  0.38559624    -0.01600
C2068       C  0.66119720  0.83970862  0.39136852    -0.09600
C2069       C  0.64690015  0.82060237  0.37372423    -0.18400
C2070       C  0.65618741  0.82361501  0.34957402     0.04000
C2071       C  0.68019888  0.84699131  0.34374663     0.18200
C2072       C  0.69432045  0.86594795  0.36162084    -0.19800
C2073       C  0.69015100  0.85132207  0.32011281    -0.21100
C2074       C  0.67680235  0.83286612  0.30202355    -0.19600
C2075       C  0.65323852  0.80949338  0.30711410     0.19600
C2076       C  0.64261919  0.80441987  0.33098302     0.01700
C2077       C  0.61896945  0.78031124  0.33514514    -0.14400
C2078       C  0.60621027  0.76234199  0.31637212    -0.12100
C2079       C  0.61647501  0.76761623  0.29277270     0.01200
C2080       C  0.64017772  0.79121243  0.28837584    -0.24300
H2081       H  0.65357116  0.83651497  0.40967274     0.09200
H2082       H  0.62867643  0.80367140  0.37957654     0.12800
H2083       H  0.71272930  0.88351130  0.35677791     0.11500
H2084       H  0.70843062  0.86915715  0.31556508     0.12700
H2085       H  0.68503067  0.83688314  0.28390788     0.11700
H2086       H  0.60978662  0.77474479  0.35271940     0.08800
H2087       H  0.58800631  0.74424038  0.32040382     0.12100
H2088       H  0.64838698  0.79555096  0.27024769     0.14000
loop_ 
_geom_bond_atom_site_label_1 
_geom_bond_atom_site_label_2 
_geom_bond_distance 
_geom_bond_site_symmetry_2 
_ccdc_geom_bond_type 
O1           Cu9   1.981       .  S
O1           C11   1.275       .  A
O2           Cu9   1.989       .  S
O2           C12   1.274       .  A
O3           Cu9   2.051       .  S
O3           C13   1.283       .  A
O4           Cu9   2.038       .  S
O4           C14   1.282       .  A
O5          Cu10   1.991       .  S
O5           C14   1.276       .  A
O6          Cu10   1.978       .  S
O6           C13   1.275       .  A
O7          Cu10   2.035       .  S
O7           C12   1.280       .  A
O8          Cu10   2.036       .  S
O8           C11   1.281       .  A
Cu9         Cu10   2.371       .  S
C11        C2023   1.476       .  S
C12        C2001   1.469       .  S
C13        C2045   1.489       .  S
C14        C2067   1.487       .  S
O15         Cu23   1.986       .  S
O15          C25   1.274       .  A
O16         Cu23   1.998       .  S
O16          C26   1.275       .  A
O17         Cu23   2.053       .  S
O17          C27   1.284       .  A
O18         Cu23   2.043       .  S
O18          C28   1.283       .  A
O19         Cu24   2.003       .  S
O19          C28   1.277       .  A
O20         Cu24   1.979       .  S
O20          C27   1.274       .  A
O21         Cu24   2.032       .  S
O21          C26   1.281       .  A
O22         Cu24   2.037       .  S
O22          C25   1.281       .  A
Cu23        Cu24   2.371       .  S
C25        C2035   1.473       .  S
C26        C1935   1.473       .  S
C27        C1969   1.481       .  S
C28        C1979   1.492       .  S
O29         Cu37   2.032       .  S
O29          C39   1.280       .  A
O30         Cu37   2.042       .  S
O30          C40   1.282       .  A
O31         Cu37   2.003       .  S
O31          C41   1.277       .  A
O32         Cu37   1.985       .  S
O32          C42   1.274       .  A
O33         Cu38   2.042       .  S
O33          C42   1.282       .  A
O34         Cu38   2.029       .  S
O34          C41   1.282       .  A
O35         Cu38   1.985       .  S
O35          C40   1.275       .  A
O36         Cu38   1.990       .  S
O36          C39   1.274       .  A
Cu37        Cu38   2.372       .  S
C39        C1847   1.469       .  S
C40        C1891   1.477       .  S
C41        C1869   1.487       .  S
C42        C1925   1.476   1_455  S
O43         Cu51   2.036       .  S
O43          C53   1.281       .  A
O44         Cu51   2.046       .  S
O44          C54   1.282       .  A
O45         Cu51   2.005       .  S
O45          C55   1.277       .  A
O46         Cu51   1.997       .  S
O46          C56   1.275       .  A
O47         Cu52   2.035       .  S
O47          C56   1.281       .  A
O48         Cu52   2.019       .  S
O48          C55   1.280       .  A
O49         Cu52   1.983       .  S
O49          C54   1.275       .  A
O50         Cu52   1.987       .  S
O50          C53   1.274       .  A
Cu51        Cu52   2.373       .  S
C53        C1781   1.471       .  S
C54        C1903   1.480       .  S
C55        C1825   1.482       .  S
C56        C1815   1.475       .  S
O57         Cu65   2.039       .  S
O57          C67   1.283       .  A
O58         Cu65   2.043       .  S
O58          C68   1.282       .  A
O59         Cu65   1.986       .  S
O59          C69   1.274       .  A
O60         Cu65   1.980       .  S
O60          C70   1.274       .  A
O61         Cu66   2.032       .  S
O61          C70   1.280       .  A
O62         Cu66   2.029       .  S
O62          C69   1.280       .  A
O63         Cu66   1.992       .  S
O63          C68   1.276       .  A
O64         Cu66   1.999       .  S
O64          C67   1.276       .  A
Cu65        Cu66   2.372       .  S
C67        C1759   1.489       .  S
C68        C1749   1.488   1_545  S
C69        C1693   1.467       .  S
C70        C1715   1.466   1_545  S
O71         Cu79   2.049       .  S
O71          C81   1.284       .  A
O72         Cu79   2.049       .  S
O72          C82   1.284       .  A
O73         Cu79   1.977       .  S
O73          C83   1.274       .  A
O74         Cu79   1.987       .  S
O74          C84   1.275       .  A
O75         Cu80   2.036       .  S
O75          C84   1.281       .  A
O76         Cu80   2.035       .  S
O76          C83   1.282       .  A
O77         Cu80   1.996       .  S
O77          C82   1.276       .  A
O78         Cu80   1.991       .  S
O78          C81   1.275       .  A
Cu79        Cu80   2.370       .  S
C81        C1671   1.487       .  S
C82        C1991   1.493       .  S
C83        C1727   1.476       .  S
C84        C1649   1.475       .  S
O85         Cu93   2.007       .  S
O85          C95   1.278       .  A
O86         Cu93   1.992       .  S
O86          C96   1.275       .  A
O87         Cu93   2.043       .  S
O87          C97   1.282       .  A
O88         Cu93   2.054       .  S
O88          C98   1.283       .  A
O89         Cu94   1.982       .  S
O89          C98   1.274       .  A
O90         Cu94   1.985       .  S
O90          C97   1.275       .  A
O91         Cu94   2.039       .  S
O91          C96   1.282       .  A
O92         Cu94   2.029       .  S
O92          C95   1.281       .  A
Cu93        Cu94   2.371       .  S
C95        C1771   1.489       .  S
C96        C1627   1.476       .  S
C97        C1583   1.478       .  S
C98        C1617   1.479       .  S
O99        Cu107   2.000       .  S
O99         C109   1.276       .  A
O100       Cu107   1.993       .  S
O100        C110   1.276       .  A
O101       Cu107   2.029       .  S
O101        C111   1.281       .  A
O102       Cu107   2.039       .  S
O102        C112   1.282       .  A
O103       Cu108   1.984       .  S
O103        C112   1.275       .  A
O104       Cu108   2.002       .  S
O104        C111   1.277       .  A
O105       Cu108   2.048       .  S
O105        C110   1.282       .  A
O106       Cu108   2.043       .  S
O106        C109   1.282       .  A
Cu107      Cu108   2.370       .  S
C109       C1551   1.480       .  S
C110       C1605   1.485       .  S
C111       C1881   1.487       .  S
C112       C1561   1.478       .  S
O113       Cu121   2.026       .  S
O113        C123   1.279       .  A
O114       Cu121   2.033       .  S
O114        C124   1.280       .  A
O115       Cu121   2.010       .  S
O115        C125   1.278       .  A
O116       Cu121   2.009       .  S
O116        C126   1.278       .  A
O117       Cu122   2.013       .  S
O117        C126   1.278       .  A
O118       Cu122   2.009       .  S
O118        C125   1.279       .  A
O119       Cu122   2.002       .  S
O119        C124   1.275       .  A
O120       Cu122   2.003       .  S
O120        C123   1.277       .  A
Cu121      Cu122   2.374       .  S
C123       C1451   1.474       .  S
C124       C1507   1.473       .  S
C125       C1485   1.483       .  S
C126       C1517   1.475       .  S
O127       Cu135   2.029       .  S
O127        C137   1.281       .  A
O128       Cu135   2.036       .  S
O128        C138   1.281       .  A
O129       Cu135   1.998       .  S
O129        C139   1.276       .  A
O130       Cu135   1.993       .  S
O130        C140   1.276       .  A
O131       Cu136   2.045       .  S
O131        C140   1.283       .  A
O132       Cu136   2.038       .  S
O132        C139   1.281       .  A
O133       Cu136   1.994       .  S
O133        C138   1.275       .  A
O134       Cu136   2.002       .  S
O134        C137   1.277       .  A
Cu135      Cu136   2.372       .  S
C137       C2079   1.487       .  S
C138       C1441   1.471       .  S
C139       C1407   1.476       .  S
C140       C1495   1.488       .  S
O141       Cu149   1.990       .  S
O141        C151   1.275       .  A
O142       Cu149   2.000       .  S
O142        C152   1.277       .  A
O143       Cu149   2.051       .  S
O143        C153   1.283       .  A
O144       Cu149   2.047       .  S
O144        C154   1.282       .  A
O145       Cu150   1.996       .  S
O145        C154   1.274       .  A
O146       Cu150   1.987       .  S
O146        C153   1.276       .  A
O147       Cu150   2.022       .  S
O147        C152   1.280       .  A
O148       Cu150   2.027       .  S
O148        C151   1.281       .  A
Cu149      Cu150   2.371       .  S
C151       C1397   1.476       .  S
C152       C1837   1.482       .  S
C153       C1363   1.488       .  S
C154       C1341   1.476       .  S
O155       Cu163   2.008       .  S
O155        C165   1.277       .  A
O156       Cu163   2.002       .  S
O156        C166   1.276       .  A
O157       Cu163   2.014       .  S
O157        C167   1.279       .  A
O158       Cu163   2.028       .  S
O158        C168   1.281       .  A
O159       Cu164   1.989       .  S
O159        C168   1.275       .  A
O160       Cu164   2.004       .  S
O160        C167   1.278       .  A
O161       Cu164   2.043       .  S
O161        C166   1.281       .  A
O162       Cu164   2.035       .  S
O162        C165   1.281       .  A
Cu163      Cu164   2.372       .  S
C165       C1309   1.480       .  S
C166       C1375   1.478       .  S
C167       C1473   1.482       .  S
C168       C1319   1.474       .  S
O169       Cu177   1.988       .  S
O169        C179   1.274       .  A
O170       Cu177   2.000       .  S
O170        C180   1.276       .  A
O171       Cu177   2.035       .  S
O171        C181   1.281       .  A
O172       Cu177   2.031       .  S
O172        C182   1.281       .  A
O173       Cu178   2.003       .  S
O173        C182   1.277       .  A
O174       Cu178   2.004       .  S
O174        C181   1.277       .  A
O175       Cu178   2.031       .  S
O175        C180   1.280       .  A
O176       Cu178   2.042       .  S
O176        C179   1.282       .  A
Cu177      Cu178   2.372       .  S
C179       C1287   1.472       .  S
C180       C1243   1.474       .  S
C181       C1419   1.481       .  S
C182       C1265   1.485       .  S
O183       Cu191   1.999       .  S
O183        C193   1.276       .  A
O184       Cu191   1.999       .  S
O184        C194   1.276       .  A
O185       Cu191   2.032       .  S
O185        C195   1.281       .  A
O186       Cu191   2.028       .  S
O186        C196   1.281       .  A
O187       Cu192   1.990       .  S
O187        C196   1.276       .  A
O188       Cu192   1.987       .  S
O188        C195   1.275       .  A
O189       Cu192   2.031       .  S
O189        C194   1.280       .  A
O190       Cu192   2.036       .  S
O190        C193   1.282       .  A
Cu191      Cu192   2.373       .  S
C193       C1275   1.486       .  S
C194       C1913   1.473       .  S
C195       C1221   1.473   1_545  S
C196       C1187   1.481       .  S
O197       Cu205   2.031       .  S
O197        C207   1.280       .  A
O198       Cu205   2.038       .  S
O198        C208   1.281       .  A
O199       Cu205   2.000       .  S
O199        C209   1.277       .  A
O200       Cu205   1.993       .  S
O200        C210   1.275       .  A
O201       Cu206   2.039       .  S
O201        C210   1.282       .  A
O202       Cu206   2.023       .  S
O202        C209   1.280       .  A
O203       Cu206   1.991       .  S
O203        C208   1.275       .  A
O204       Cu206   1.995       .  S
O204        C207   1.275       .  A
Cu205      Cu206   2.372       .  S
C207       C1957   1.471       .  S
C208       C1143   1.479       .  S
C209       C1199   1.482       .  S
C210       C1165   1.478       .  S
O211       Cu219   2.034       .  S
O211        C221   1.280       .  A
O212       Cu219   2.040       .  S
O212        C222   1.282       .  A
O213       Cu219   2.008       .  S
O213        C223   1.278       .  A
O214       Cu219   1.997       .  S
O214        C224   1.276       .  A
O215       Cu220   2.042       .  S
O215        C224   1.282       .  A
O216       Cu220   2.031       .  S
O216        C223   1.281       .  A
O217       Cu220   1.984       .  S
O217        C222   1.274       .  A
O218       Cu220   1.990       .  S
O218        C221   1.274       .  A
Cu219      Cu220   2.371       .  S
C221       C1111   1.468       .  S
C222       C1155   1.477       .  S
C223       C1121   1.489       .  S
C224       C1353   1.483       .  S
O225       Cu233   2.006       .  S
O225        C235   1.277       .  A
O226       Cu233   2.000       .  S
O226        C236   1.276       .  A
O227       Cu233   2.045       .  S
O227        C237   1.281       .  A
O228       Cu233   2.053       .  S
O228        C238   1.283       .  A
O229       Cu234   1.990       .  S
O229        C238   1.276       .  A
O230       Cu234   1.997       .  S
O230        C237   1.275       .  A
O231       Cu234   2.024       .  S
O231        C236   1.280       .  A
O232       Cu234   2.026       .  S
O232        C235   1.281       .  A
Cu233      Cu234   2.369       .  S
C235       C1133   1.487       .  S
C236       C1705   1.476       .  S
C237       C1055   1.476       .  S
C238       C1077   1.487       .  S
O239       Cu247   2.022       .  S
O239        C249   1.280       .  A
O240       Cu247   1.999       .  S
O240        C250   1.276       .  A
O241       Cu247   2.028       .  S
O241        C251   1.279       .  A
O242       Cu247   2.042       .  S
O242        C252   1.282       .  A
O243       Cu248   1.994       .  S
O243        C252   1.275       .  A
O244       Cu248   1.999       .  S
O244        C251   1.276       .  A
O245       Cu248   2.035       .  S
O245        C250   1.281       .  A
O246       Cu248   2.026       .  S
O246        C249   1.280       .  A
Cu247      Cu248   2.372       .  S
C249       C1023   1.491       .  S
C250       C1045   1.478       .  S
C251       C1529   1.471       .  S
C252       C1089   1.479       .  S
O253       Cu261   2.031       .  S
O253        C263   1.280       .  A
O254       Cu261   2.021       .  S
O254        C264   1.278       .  A
O255       Cu261   2.006       .  S
O255        C265   1.277       .  A
O256       Cu261   2.007       .  S
O256        C266   1.278       .  A
O257       Cu262   2.041       .  S
O257        C266   1.283       .  A
O258       Cu262   2.039       .  S
O258        C265   1.282       .  A
O259       Cu262   2.001       .  S
O259        C264   1.276       .  A
O260       Cu262   1.991       .  S
O260        C263   1.275       .  A
Cu261      Cu262   2.373       .  S
C263        C967   1.471       .  S
C264       C1573   1.467       .  S
C265        C989   1.482       .  S
C266       C1011   1.493       .  S
O267       Cu275   2.037       .  S
O267        C277   1.282       .  A
O268       Cu275   2.031       .  S
O268        C278   1.281       .  A
O269       Cu275   1.993       .  S
O269        C279   1.276       .  A
O270       Cu275   1.994       .  S
O270        C280   1.276       .  A
O271       Cu276   2.037       .  S
O271        C280   1.282       .  A
O272       Cu276   2.035       .  S
O272        C279   1.281       .  A
O273       Cu276   1.994       .  S
O273        C278   1.276       .  A
O274       Cu276   1.990       .  S
O274        C277   1.275       .  A
Cu275      Cu276   2.371       .  S
C277        C979   1.480       .  S
C278        C935   1.480       .  S
C279       C2013   1.480       .  S
C280        C945   1.488       .  S
O281       Cu289   1.992       .  S
O281        C291   1.274       .  A
O282       Cu289   1.985       .  S
O282        C292   1.275       .  A
O283       Cu289   2.034       .  S
O283        C293   1.282       .  A
O284       Cu289   2.044       .  S
O284        C294   1.282       .  A
O285       Cu290   1.987       .  S
O285        C294   1.275       .  A
O286       Cu290   2.002       .  S
O286        C293   1.277       .  A
O287       Cu290   2.051       .  S
O287        C292   1.283       .  A
O288       Cu290   2.040       .  S
O288        C291   1.282       .  A
Cu289      Cu290   2.371       .  S
C291        C879   1.473       .  S
C292        C901   1.488       .  S
C293        C957   1.489       .  S
C294       C1793   1.478       .  S
O295       Cu303   1.989       .  S
O295        C305   1.274       .  A
O296       Cu303   1.998       .  S
O296        C306   1.275       .  A
O297       Cu303   2.047       .  S
O297        C307   1.283       .  A
O298       Cu303   2.037       .  S
O298        C308   1.282       .  A
O299       Cu304   2.017       .  S
O299        C308   1.278       .  A
O300       Cu304   2.000       .  S
O300        C307   1.275       .  A
O301       Cu304   2.039       .  S
O301        C306   1.281       .  A
O302       Cu304   2.048       .  S
O302        C305   1.282       .  A
Cu303      Cu304   2.371       .  S
C305        C913   1.477       .  S
C306       C1683   1.474       .  S
C307        C847   1.480       .  S
C308        C857   1.494       .  S
O309       Cu317   2.048       .  S
O309        C319   1.283       .  A
O310       Cu317   2.032       .  S
O310        C320   1.280       .  A
O311       Cu317   1.993       .  S
O311        C321   1.274       .  A
O312       Cu317   2.010       .  S
O312        C322   1.278       .  A
O313       Cu318   2.025       .  S
O313        C322   1.280       .  A
O314       Cu318   2.035       .  S
O314        C321   1.281       .  A
O315       Cu318   1.997       .  S
O315        C320   1.275       .  A
O316       Cu318   1.990       .  S
O316        C319   1.275       .  A
Cu317      Cu318   2.373       .  S
C319        C813   1.483       .  S
C320        C803   1.472       .  S
C321       C1595   1.471       .  S
C322       C1253   1.484       .  S
O323       Cu331   2.040       .  S
O323        C333   1.281       .  A
O324       Cu331   2.027       .  S
O324        C334   1.279       .  A
O325       Cu331   1.989       .  S
O325        C335   1.274       .  A
O326       Cu331   2.008       .  S
O326        C336   1.278       .  A
O327       Cu332   2.042       .  S
O327        C336   1.283       .  A
O328       Cu332   2.053       .  S
O328        C335   1.283       .  A
O329       Cu332   1.995       .  S
O329        C334   1.275       .  A
O330       Cu332   1.996       .  S
O330        C333   1.275       .  A
Cu331      Cu332   2.371       .  S
C333        C825   1.479       .  S
C334       C1331   1.469       .  S
C335        C769   1.481       .  S
C336        C869   1.494       .  S
O337       Cu345   2.045       .  S
O337        C347   1.282       .  A
O338       Cu345   2.038       .  S
O338        C348   1.281       .  A
O339       Cu345   1.988       .  S
O339        C349   1.275       .  A
O340       Cu345   2.007       .  S
O340        C350   1.277       .  A
O341       Cu346   2.028       .  S
O341        C350   1.281       .  A
O342       Cu346   2.042       .  S
O342        C349   1.282       .  A
O343       Cu346   1.997       .  S
O343        C348   1.276       .  A
O344       Cu346   1.989       .  S
O344        C347   1.275       .  A
Cu345      Cu346   2.371       .  S
C347        C725   1.480       .  S
C348       C1639   1.477       .  S
C349        C891   1.481       .  S
C350        C747   1.488       .  S
O351       Cu359   2.028       .  S
O351        C361   1.280       .  A
O352       Cu359   2.042       .  S
O352        C362   1.282       .  A
O353       Cu359   2.015       .  S
O353        C363   1.279       .  A
O354       Cu359   1.999       .  S
O354        C364   1.275       .  A
O355       Cu360   2.048       .  S
O355        C364   1.283       .  A
O356       Cu360   2.036       .  S
O356        C363   1.282       .  A
O357       Cu360   1.992       .  S
O357        C362   1.276       .  A
O358       Cu360   1.995       .  S
O358        C361   1.275       .  A
Cu359      Cu360   2.371       .  S
C361       C1209   1.470       .  S
C362        C737   1.482       .  S
C363        C715   1.494       .  S
C364       C1297   1.481       .  S
O365       Cu373   1.994       .  S
O365        C375   1.275       .  A
O366       Cu373   1.990       .  S
O366        C376   1.274       .  A
O367       Cu373   2.023       .  S
O367        C377   1.281       .  A
O368       Cu373   2.034       .  S
O368        C378   1.282       .  A
O369       Cu374   1.999       .  S
O369        C378   1.276       .  A
O370       Cu374   2.015       .  S
O370        C377   1.278       .  A
O371       Cu374   2.055       .  S
O371        C376   1.283       .  A
O372       Cu374   2.049       .  S
O372        C375   1.282       .  A
Cu373      Cu374   2.370       .  S
C375       C1803   1.482       .  S
C376        C693   1.480       .  S
C377        C659   1.489       .  S
C378        C791   1.481       .  S
O379       Cu387   1.988       .  S
O379        C389   1.274       .  A
O380       Cu387   2.011       .  S
O380        C390   1.278       .  A
O381       Cu387   2.056       .  S
O381        C391   1.284       .  A
O382       Cu387   2.045       .  S
O382        C392   1.282       .  A
O383       Cu388   1.999       .  S
O383        C392   1.276       .  A
O384       Cu388   1.998       .  S
O384        C391   1.276       .  A
O385       Cu388   2.039       .  S
O385        C390   1.282       .  A
O386       Cu388   2.043       .  S
O386        C389   1.282       .  A
Cu387      Cu388   2.370       .  S
C389       C1661   1.472       .  S
C390        C703   1.494       .  S
C391        C681   1.494       .  S
C392       C1001   1.481       .  S
O393       Cu401   2.043       .  S
O393        C403   1.283       .  A
O394       Cu401   2.051       .  S
O394        C404   1.284       .  A
O395       Cu401   1.988       .  S
O395        C405   1.274       .  A
O396       Cu401   1.984       .  S
O396        C406   1.274       .  A
O397       Cu402   2.043       .  S
O397        C406   1.281       .  A
O398       Cu402   2.044       .  S
O398        C405   1.282       .  A
O399       Cu402   1.989       .  S
O399        C404   1.275       .  A
O400       Cu402   1.999       .  S
O400        C403   1.277       .  A
Cu401      Cu402   2.370       .  S
C403       C1067   1.492       .  S
C404        C671   1.490       .  S
C405        C637   1.477       .  S
C406       C2057   1.471       .  S
O407       Cu415   2.043       .  S
O407        C417   1.282       .  A
O408       Cu415   2.044       .  S
O408        C418   1.283       .  A
O409       Cu415   1.984       .  S
O409        C419   1.274       .  A
O410       Cu415   1.993       .  S
O410        C420   1.275       .  A
O411       Cu416   2.048       .  S
O411        C420   1.282       .  A
O412       Cu416   2.054       .  S
O412        C419   1.284       .  A
O413       Cu416   2.008       .  S
O413        C418   1.277       .  A
O414       Cu416   2.004       .  S
O414        C417   1.276       .  A
Cu415      Cu416   2.370       .  S
C417       C1539   1.482       .  S
C418        C627   1.494       .  S
C419        C649   1.483       .  S
C420        C835   1.482       .  S
O421       Cu429   2.004       .  S
O421        C431   1.277       .  A
O422       Cu429   1.999       .  S
O422        C432   1.277       .  A
O423       Cu429   2.031       .  S
O423        C433   1.281       .  A
O424       Cu429   2.037       .  S
O424        C434   1.281       .  A
O425       Cu430   1.995       .  S
O425        C434   1.275       .  A
O426       Cu430   2.015       .  S
O426        C433   1.279       .  A
O427       Cu430   2.048       .  S
O427        C432   1.283       .  A
O428       Cu430   2.034       .  S
O428        C431   1.280       .  A
Cu429      Cu430   2.371       .  S
C431       C1177   1.476       .  S
C432        C593   1.489       .  S
C433        C615   1.492       .  S
C434       C1463   1.475       .  S
O435       Cu443   2.002       .  S
O435        C445   1.275       .  A
O436       Cu443   1.999       .  S
O436        C446   1.276       .  A
O437       Cu443   2.033       .  S
O437        C447   1.282       .  A
O438       Cu443   2.041       .  S
O438        C448   1.281       .  A
O439       Cu444   1.988       .  S
O439        C448   1.274       .  A
O440       Cu444   2.004       .  S
O440        C447   1.277       .  A
O441       Cu444   2.050       .  S
O441        C446   1.283       .  A
O442       Cu444   2.037       .  S
O442        C445   1.281       .  A
Cu443      Cu444   2.372       .  S
C445       C1737   1.473       .  S
C446        C605   1.483       .  S
C447        C571   1.488       .  S
C448        C923   1.470   1_455  S
O449       Cu457   2.050       .  S
O449        C459   1.283       .  A
O450       Cu457   2.038       .  S
O450        C460   1.282       .  A
O451       Cu457   1.984       .  S
O451        C461   1.275       .  A
O452       Cu457   1.997       .  S
O452        C462   1.275       .  A
O453       Cu458   2.037       .  S
O453        C462   1.281       .  A
O454       Cu458   2.045       .  S
O454        C461   1.282       .  A
O455       Cu458   1.995       .  S
O455        C460   1.276       .  A
O456       Cu458   1.983       .  S
O456        C459   1.274       .  A
Cu457      Cu458   2.371       .  S
C459       C1947   1.480       .  S
C460        C539   1.488       .  S
C461        C549   1.479       .  S
C462       C1033   1.475       .  S
O463       Cu471   2.040       .  S
O463        C473   1.282       .  A
O464       Cu471   2.047       .  S
O464        C474   1.283       .  A
O465       Cu471   1.995       .  S
O465        C475   1.275       .  A
O466       Cu471   1.989       .  S
O466        C476   1.275       .  A
O467       Cu472   2.038       .  S
O467        C476   1.281       .  A
O468       Cu472   2.023       .  S
O468        C475   1.279       .  A
O469       Cu472   1.982       .  S
O469        C474   1.273       .  A
O470       Cu472   1.999       .  S
O470        C473   1.277       .  A
Cu471      Cu472   2.373       .  S
C473        C583   1.489       .  S
C474       C1231   1.475       .  S
C475       C1385   1.466       .  S
C476        C561   1.477       .  S
O477       Cu485   1.988       .  S
O477        C487   1.275       .  A
O478       Cu485   1.994       .  S
O478        C488   1.276       .  A
O479       Cu485   2.046       .  S
O479        C489   1.283       .  A
O480       Cu485   2.038       .  S
O480        C490   1.281       .  A
O481       Cu486   2.005       .  S
O481        C490   1.276       .  A
O482       Cu486   1.997       .  S
O482        C489   1.275       .  A
O483       Cu486   2.036       .  S
O483        C488   1.282       .  A
O484       Cu486   2.034       .  S
O484        C487   1.281       .  A
Cu485      Cu486   2.371       .  S
C487       C1859   1.476       .  S
C488        C527   1.487       .  S
C489        C517   1.481       .  S
C490        C781   1.479       .  S
O491       Cu499   1.998       .  S
O491        C501   1.276       .  A
O492       Cu499   1.997       .  S
O492        C502   1.276       .  A
O493       Cu499   2.032       .  S
O493        C503   1.281       .  A
O494       Cu499   2.033       .  S
O494        C504   1.281       .  A
O495       Cu500   1.999       .  S
O495        C504   1.277       .  A
O496       Cu500   1.999       .  S
O496        C503   1.277       .  A
O497       Cu500   2.036       .  S
O497        C502   1.281       .  A
O498       Cu500   2.043       .  S
O498        C501   1.282       .  A
Cu499      Cu500   2.370       .  S
C501        C505   1.484       .  S
C502       C1429   1.479       .  S
C503       C1099   1.483       .  S
C504        C759   1.488       .  S
C505        C506   1.400       .  A
C505        C510   1.403       .  A
C506        C507   1.404       .  A
C506        H519   1.083       .  S
C507        C508   1.419       .  A
C507        H520   1.078       .  S
C508        C514   1.435       .  A
C508        C509   1.421       .  A
C509        C511   1.400       .  A
C509        C510   1.405       .  A
C510        H521   1.085       .  S
C511        C512   1.391       .  A
C511        H522   1.084       .  S
C512        C513   1.399       .  A
C512        H523   1.084       .  S
C513        C514   1.426       .  A
C513        C518   1.411       .  A
C514        C515   1.414       .  A
C515        C516   1.399       .  A
C515        H524   1.078       .  S
C516        C517   1.402       .  A
C516        H525   1.084       .  S
C517        C518   1.399       .  A
C518        H526   1.085       .  S
C527        C528   1.400       .  A
C527        C532   1.406       .  A
C528        C529   1.400       .  A
C528        H541   1.083       .  S
C529        C530   1.418       .  A
C529        H542   1.077       .  S
C530        C536   1.433       .  A
C530        C531   1.420       .  A
C531        C533   1.401       .  A
C531        C532   1.405       .  A
C532        H543   1.084       .  S
C533        C534   1.391       .  A
C533        H544   1.084       .  S
C534        C535   1.399       .  A
C534        H545   1.084       .  S
C535        C536   1.425       .  A
C535        C540   1.411       .  A
C536        C537   1.412       .  A
C537        C538   1.395       .  A
C537        H546   1.077       .  S
C538        C539   1.403       .  A
C538        H547   1.083       .  S
C539        C540   1.403       .  A
C540        H548   1.084       .  S
C549        C550   1.400       .  A
C549        C554   1.400       .  A
C550        C551   1.405       .  A
C550        H563   1.083       .  S
C551        C552   1.419       .  A
C551        H564   1.078       .  S
C552        C558   1.434   1_545  A
C552        C553   1.422       .  A
C553        C555   1.398       .  A
C553        C554   1.400       .  A
C554        H565   1.085       .  S
C555        C556   1.386   1_545  A
C555        H566   1.084       .  S
C556        C557   1.398       .  A
C556        H567   1.084       .  S
C557        C558   1.423       .  A
C557        C562   1.401       .  A
C558        C559   1.418       .  A
C559        C560   1.404       .  A
C559        H568   1.078       .  S
C560        C561   1.400       .  A
C560        H569   1.083       .  S
C561        C562   1.398       .  A
C562        H570   1.085       .  S
C571        C572   1.405       .  A
C571        C576   1.400       .  A
C572        C573   1.400       .  A
C572        H585   1.083       .  S
C573        C574   1.414       .  A
C573        H586   1.078       .  S
C574        C580   1.436       .  A
C574        C575   1.425       .  A
C575        C577   1.398       .  A
C575        C576   1.407       .  A
C576        H587   1.084       .  S
C577        C578   1.388       .  A
C577        H588   1.084       .  S
C578        C579   1.399       .  A
C578        H589   1.084       .  S
C579        C580   1.421       .  A
C579        C584   1.403       .  A
C580        C581   1.419       .  A
C581        C582   1.405       .  A
C581        H590   1.078       .  S
C582        C583   1.402       .  A
C582        H591   1.083       .  S
C583        C584   1.403       .  A
C584        H592   1.084       .  S
C593        C594   1.403       .  A
C593        C598   1.402       .  A
C594        C595   1.407       .  A
C594        H607   1.083       .  S
C595        C596   1.418       .  A
C595        H608   1.078       .  S
C596        C602   1.438       .  A
C596        C597   1.423       .  A
C597        C599   1.399   1_655  A
C597        C598   1.405       .  A
C598        H609   1.085       .  S
C599        C600   1.388       .  A
C599        H610   1.084       .  S
C600        C601   1.398       .  A
C600        H611   1.084       .  S
C601        C602   1.423   1_455  A
C601        C606   1.405       .  A
C602        C603   1.418       .  A
C603        C604   1.407       .  A
C603        H612   1.078       .  S
C604        C605   1.401   1_655  A
C604        H613   1.083       .  S
C605        C606   1.400       .  A
C606        H614   1.085       .  S
C615        C616   1.403       .  A
C615        C620   1.405       .  A
C616        C617   1.403   1_655  A
C616        H629   1.083       .  S
C617        C618   1.418   1_455  A
C617        H630   1.078       .  S
C618        C624   1.437   1_655  A
C618        C619   1.422       .  A
C619        C621   1.400       .  A
C619        C620   1.408       .  A
C620        H631   1.084       .  S
C621        C622   1.391       .  A
C621        H632   1.084       .  S
C622        C623   1.399       .  A
C622        H633   1.084       .  S
C623        C624   1.424   1_655  A
C623        C628   1.412   1_655  A
C624        C625   1.414       .  A
C625        C626   1.400       .  A
C625        H634   1.078       .  S
C626        C627   1.405       .  A
C626        H635   1.083       .  S
C627        C628   1.403       .  A
C628        H636   1.084   1_455  S
C637        C638   1.400       .  A
C637        C642   1.399       .  A
C638        C639   1.396   1_655  A
C638        H651   1.084       .  S
C639        C640   1.413       .  A
C639        H652   1.077       .  S
C640        C646   1.433       .  A
C640        C641   1.426   1_455  A
C641        C643   1.399       .  A
C641        C642   1.411       .  A
C642        H653   1.084       .  S
C643        C644   1.391   1_655  A
C643        H654   1.084       .  S
C644        C645   1.401       .  A
C644        H655   1.084       .  S
C645        C646   1.420       .  A
C645        C650   1.405       .  A
C646        C647   1.419       .  A
C647        C648   1.403       .  A
C647        H656   1.077       .  S
C648        C649   1.398       .  A
C648        H657   1.083       .  S
C649        C650   1.405       .  A
C650        H658   1.085       .  S
C659        C660   1.404       .  A
C659        C664   1.402       .  A
C660        C661   1.401       .  A
C660        H673   1.083       .  S
C661        C662   1.415       .  A
C661        H674   1.078       .  S
C662        C668   1.436       .  A
C662        C663   1.424       .  A
C663        C665   1.398       .  A
C663        C664   1.407       .  A
C664        H675   1.084       .  S
C665        C666   1.388       .  A
C665        H676   1.084       .  S
C666        C667   1.399       .  A
C666        H677   1.084       .  S
C667        C668   1.421       .  A
C667        C672   1.403       .  A
C668        C669   1.419       .  A
C669        C670   1.405       .  A
C669        H678   1.078       .  S
C670        C671   1.402       .  A
C670        H679   1.083       .  S
C671        C672   1.404       .  A
C672        H680   1.084       .  S
C681        C682   1.403       .  A
C681        C686   1.406       .  A
C682        C683   1.396       .  A
C682        H695   1.083       .  S
C683        C684   1.414       .  A
C683        H696   1.077       .  S
C684        C690   1.435   1_565  A
C684        C685   1.423       .  A
C685        C687   1.402       .  A
C685        C686   1.416       .  A
C686        H697   1.084       .  S
C687        C688   1.396   1_565  A
C687        H698   1.084       .  S
C688        C689   1.401       .  A
C688        H699   1.084       .  S
C689        C690   1.424       .  A
C689        C694   1.415       .  A
C690        C691   1.415       .  A
C691        C692   1.396       .  A
C691        H700   1.077       .  S
C692        C693   1.399       .  A
C692        H701   1.084       .  S
C693        C694   1.403       .  A
C694        H702   1.084       .  S
C703        C704   1.405       .  A
C703        C708   1.404       .  A
C704        C705   1.400       .  A
C704        H717   1.083       .  S
C705        C706   1.414       .  A
C705        H718   1.077       .  S
C706        C712   1.437       .  A
C706        C707   1.424       .  A
C707        C709   1.400       .  A
C707        C708   1.412       .  A
C708        H719   1.084       .  S
C709        C710   1.391       .  A
C709        H720   1.084       .  S
C710        C711   1.400       .  A
C710        H721   1.084       .  S
C711        C712   1.421       .  A
C711        C716   1.408       .  A
C712        C713   1.418       .  A
C713        C714   1.403       .  A
C713        H722   1.077       .  S
C714        C715   1.403       .  A
C714        H723   1.083       .  S
C715        C716   1.406       .  A
C716        H724   1.084       .  S
C725        C726   1.401       .  A
C725        C730   1.399       .  A
C726        C727   1.406       .  A
C726        H739   1.083       .  S
C727        C728   1.418       .  A
C727        H740   1.079       .  S
C728        C734   1.435       .  A
C728        C729   1.423       .  A
C729        C731   1.398       .  A
C729        C730   1.402       .  A
C730        H741   1.085       .  S
C731        C732   1.386       .  A
C731        H742   1.084       .  S
C732        C733   1.398       .  A
C732        H743   1.084       .  S
C733        C734   1.423       .  A
C733        C738   1.402       .  A
C734        C735   1.418       .  A
C735        C736   1.406       .  A
C735        H744   1.079       .  S
C736        C737   1.402       .  A
C736        H745   1.083       .  S
C737        C738   1.400       .  A
C738        H746   1.085       .  S
C747        C748   1.404       .  A
C747        C752   1.402       .  A
C748        C749   1.399   1_556  A
C748        H761   1.083       .  S
C749        C750   1.414       .  A
C749        H762   1.078       .  S
C750        C756   1.434       .  A
C750        C751   1.424   1_554  A
C751        C753   1.398       .  A
C751        C752   1.407       .  A
C752        H763   1.084       .  S
C753        C754   1.389       .  A
C753        H764   1.084       .  S
C754        C755   1.399   1_556  A
C754        H765   1.084       .  S
C755        C756   1.421       .  A
C755        C760   1.404       .  A
C756        C757   1.418       .  A
C757        C758   1.402       .  A
C757        H766   1.077       .  S
C758        C759   1.402       .  A
C758        H767   1.083       .  S
C759        C760   1.404       .  A
C760        H768   1.084       .  S
C769        C770   1.401       .  A
C769        C774   1.400   1_556  A
C770        C771   1.398   1_556  A
C770        H783   1.084       .  S
C771        C772   1.414   1_565  A
C771        H784   1.078       .  S
C772        C778   1.434       .  A
C772        C773   1.425       .  A
C773        C775   1.400       .  A
C773        C774   1.411   1_545  A
C774        H785   1.084       .  S
C775        C776   1.392       .  A
C775        H786   1.084       .  S
C776        C777   1.400       .  A
C776        H787   1.084       .  S
C777        C778   1.422       .  A
C777        C782   1.407       .  A
C778        C779   1.418       .  A
C779        C780   1.402       .  A
C779        H788   1.078       .  S
C780        C781   1.398       .  A
C780        H789   1.083       .  S
C781        C782   1.401       .  A
C782        H790   1.085       .  S
C791        C792   1.399       .  A
C791        C796   1.403       .  A
C792        C793   1.400       .  A
C792        H805   1.083       .  S
C793        C794   1.417       .  A
C793        H806   1.077       .  S
C794        C800   1.432       .  A
C794        C795   1.422       .  A
C795        C797   1.400       .  A
C795        C796   1.406       .  A
C796        H807   1.085       .  S
C797        C798   1.391       .  A
C797        H808   1.084       .  S
C798        C799   1.400       .  A
C798        H809   1.084       .  S
C799        C800   1.424       .  A
C799        C804   1.408       .  A
C800        C801   1.415       .  A
C801        C802   1.398       .  A
C801        H810   1.077       .  S
C802        C803   1.398       .  A
C802        H811   1.084       .  S
C803        C804   1.399       .  A
C804        H812   1.085       .  S
C813        C814   1.401       .  A
C813        C818   1.401   1_545  A
C814        C815   1.405       .  A
C814        H827   1.083       .  S
C815        C816   1.418   1_545  A
C815        H828   1.078       .  S
C816        C822   1.435       .  A
C816        C817   1.422       .  A
C817        C819   1.399       .  A
C817        C818   1.403       .  A
C818        H829   1.085       .  S
C819        C820   1.388       .  A
C819        H830   1.084       .  S
C820        C821   1.398       .  A
C820        H831   1.084       .  S
C821        C822   1.423       .  A
C821        C826   1.404       .  A
C822        C823   1.417       .  A
C823        C824   1.404       .  A
C823        H832   1.078   1_565  S
C824        C825   1.400       .  A
C824        H833   1.083       .  S
C825        C826   1.399       .  A
C826        H834   1.085       .  S
C835        C836   1.401       .  A
C835        C840   1.401       .  A
C836        C837   1.396       .  A
C836        H849   1.084       .  S
C837        C838   1.413       .  A
C837        H850   1.078       .  S
C838        C844   1.434       .  A
C838        C839   1.426       .  A
C839        C841   1.400       .  A
C839        C840   1.413       .  A
C840        H851   1.084       .  S
C841        C842   1.393       .  A
C841        H852   1.084       .  S
C842        C843   1.401       .  A
C842        H853   1.084       .  S
C843        C844   1.421       .  A
C843        C848   1.409       .  A
C844        C845   1.418       .  A
C845        C846   1.401       .  A
C845        H854   1.078       .  S
C846        C847   1.398       .  A
C846        H855   1.083       .  S
C847        C848   1.403       .  A
C848        H856   1.085       .  S
C857        C858   1.405       .  A
C857        C862   1.403       .  A
C858        C859   1.402       .  A
C858        H871   1.083       .  S
C859        C860   1.415       .  A
C859        H872   1.078       .  S
C860        C866   1.438       .  A
C860        C861   1.424       .  A
C861        C863   1.399       .  A
C861        C862   1.410       .  A
C862        H873   1.084       .  S
C863        C864   1.390       .  A
C863        H874   1.084       .  S
C864        C865   1.400       .  A
C864        H875   1.084       .  S
C865        C866   1.421       .  A
C865        C870   1.407       .  A
C866        C867   1.419       .  A
C867        C868   1.405       .  A
C867        H876   1.078       .  S
C868        C869   1.403       .  A
C868        H877   1.083       .  S
C869        C870   1.405       .  A
C870        H878   1.084       .  S
C879        C880   1.399       .  A
C879        C884   1.398       .  A
C880        C881   1.398       .  A
C880        H893   1.084       .  S
C881        C882   1.415       .  A
C881        H894   1.078       .  S
C882        C888   1.433       .  A
C882        C883   1.425       .  A
C883        C885   1.399       .  A
C883        C884   1.408       .  A
C884        H895   1.085       .  S
C885        C886   1.390       .  A
C885        H896   1.084       .  S
C886        C887   1.400       .  A
C886        H897   1.084       .  S
C887        C888   1.421       .  A
C887        C892   1.404       .  A
C888        C889   1.418       .  A
C889        C890   1.402       .  A
C889        H898   1.078       .  S
C890        C891   1.400       .  A
C890        H899   1.083       .  S
C891        C892   1.402       .  A
C892        H900   1.085       .  S
C901        C902   1.402       .  A
C901        C906   1.403       .  A
C902        C903   1.406       .  A
C902        H915   1.083       .  S
C903        C904   1.419       .  A
C903        H916   1.078       .  S
C904        C910   1.436       .  A
C904        C905   1.422       .  A
C905        C907   1.399       .  A
C905        C906   1.402       .  A
C906        H917   1.085       .  S
C907        C908   1.387   1_655  A
C907        H918   1.084       .  S
C908        C909   1.398       .  A
C908        H919   1.084       .  S
C909        C910   1.424   1_455  A
C909        C914   1.403       .  A
C910        C911   1.418   1_655  A
C911        C912   1.406       .  A
C911        H920   1.078       .  S
C912        C913   1.400       .  A
C912        H921   1.083       .  S
C913        C914   1.398       .  A
C914        H922   1.085       .  S
C923        C924   1.399       .  A
C923        C928   1.397       .  A
C924        C925   1.399       .  A
C924        H937   1.084   1_655  S
C925        C926   1.415       .  A
C925        H938   1.077       .  S
C926        C932   1.433       .  A
C926        C927   1.425       .  A
C927        C929   1.399       .  A
C927        C928   1.407       .  A
C928        H939   1.085       .  S
C929        C930   1.389       .  A
C929        H940   1.084       .  S
C930        C931   1.399       .  A
C930        H941   1.084       .  S
C931        C932   1.421       .  A
C931        C936   1.403       .  A
C932        C933   1.418       .  A
C933        C934   1.402       .  A
C933        H942   1.078       .  S
C934        C935   1.400       .  A
C934        H943   1.083       .  S
C935        C936   1.401       .  A
C936        H944   1.085       .  S
C945        C946   1.401       .  A
C945        C950   1.404       .  A
C946        C947   1.402       .  A
C946        H959   1.083       .  S
C947        C948   1.418       .  A
C947        H960   1.077       .  S
C948        C954   1.434       .  A
C948        C949   1.421       .  A
C949        C951   1.400       .  A
C949        C950   1.404       .  A
C950        H961   1.084       .  S
C951        C952   1.389       .  A
C951        H962   1.084       .  S
C952        C953   1.399       .  A
C952        H963   1.084       .  S
C953        C954   1.424       .  A
C953        C958   1.408       .  A
C954        C955   1.413       .  A
C955        C956   1.398       .  A
C955        H964   1.078       .  S
C956        C957   1.404       .  A
C956        H965   1.083       .  S
C957        C958   1.402       .  A
C958        H966   1.084       .  S
C967        C968   1.399       .  A
C967        C972   1.397       .  A
C968        C969   1.397       .  A
C968        H981   1.084       .  S
C969        C970   1.414       .  A
C969        H982   1.078       .  S
C970        C976   1.431       .  A
C970        C971   1.425       .  A
C971        C973   1.399       .  A
C971        C972   1.407       .  A
C972        H983   1.085       .  S
C973        C974   1.390       .  A
C973        H984   1.084       .  S
C974        C975   1.400       .  A
C974        H985   1.084       .  S
C975        C976   1.421       .  A
C975        C980   1.403       .  A
C976        C977   1.417       .  A
C977        C978   1.401       .  A
C977        H986   1.078       .  S
C978        C979   1.399       .  A
C978        H987   1.083       .  S
C979        C980   1.403       .  A
C980        H988   1.085       .  S
C989        C990   1.401       .  A
C989        C994   1.400       .  A
C990        C991   1.401       .  A
C990       H1003   1.083       .  S
C991        C992   1.415       .  A
C991       H1004   1.078       .  S
C992        C998   1.436       .  A
C992        C993   1.425       .  A
C993        C995   1.399       .  A
C993        C994   1.409       .  A
C994       H1005   1.085       .  S
C995        C996   1.390       .  A
C995       H1006   1.084       .  S
C996        C997   1.400       .  A
C996       H1007   1.084       .  S
C997        C998   1.422       .  A
C997       C1002   1.406       .  A
C998        C999   1.419       .  A
C999       C1000   1.405       .  A
C999       H1008   1.078       .  S
C1000      C1001   1.400       .  A
C1000      H1009   1.083       .  S
C1001      C1002   1.401       .  A
C1002      H1010   1.085       .  S
C1011      C1012   1.402       .  A
C1011      C1016   1.405       .  A
C1012      C1013   1.403       .  A
C1012      H1025   1.083       .  S
C1013      C1014   1.418       .  A
C1013      H1026   1.077       .  S
C1014      C1020   1.437       .  A
C1014      C1015   1.422       .  A
C1015      C1017   1.400       .  A
C1015      C1016   1.407       .  A
C1016      H1027   1.084       .  S
C1017      C1018   1.390       .  A
C1017      H1028   1.084       .  S
C1018      C1019   1.399       .  A
C1018      H1029   1.084       .  S
C1019      C1020   1.424       .  A
C1019      C1024   1.410       .  A
C1020      C1021   1.415       .  A
C1021      C1022   1.401       .  A
C1021      H1030   1.077       .  S
C1022      C1023   1.404       .  A
C1022      H1031   1.083       .  S
C1023      C1024   1.403       .  A
C1024      H1032   1.084       .  S
C1033      C1034   1.399       .  A
C1033      C1038   1.400       .  A
C1034      C1035   1.397       .  A
C1034      H1047   1.084       .  S
C1035      C1036   1.415       .  A
C1035      H1048   1.077       .  S
C1036      C1042   1.432       .  A
C1036      C1037   1.424       .  A
C1037      C1039   1.400       .  A
C1037      C1038   1.409       .  A
C1038      H1049   1.085       .  S
C1039      C1040   1.392       .  A
C1039      H1050   1.084       .  S
C1040      C1041   1.400       .  A
C1040      H1051   1.084       .  S
C1041      C1042   1.422       .  A
C1041      C1046   1.407       .  A
C1042      C1043   1.416       .  A
C1043      C1044   1.399       .  A
C1043      H1052   1.077       .  S
C1044      C1045   1.398       .  A
C1044      H1053   1.084       .  S
C1045      C1046   1.402       .  A
C1046      H1054   1.085       .  S
C1055      C1056   1.399       .  A
C1055      C1060   1.397       .  A
C1056      C1057   1.405       .  A
C1056      H1069   1.083       .  S
C1057      C1058   1.419       .  A
C1057      H1070   1.078       .  S
C1058      C1064   1.437       .  A
C1058      C1059   1.424       .  A
C1059      C1061   1.398       .  A
C1059      C1060   1.404       .  A
C1060      H1071   1.085       .  S
C1061      C1062   1.388       .  A
C1061      H1072   1.084       .  S
C1062      C1063   1.399       .  A
C1062      H1073   1.084       .  S
C1063      C1064   1.422       .  A
C1063      C1068   1.404   1_455  A
C1064      C1065   1.418       .  A
C1065      C1066   1.406   1_455  A
C1065      H1074   1.078       .  S
C1066      C1067   1.403       .  A
C1066      H1075   1.083       .  S
C1067      C1068   1.404       .  A
C1068      H1076   1.084       .  S
C1077      C1078   1.402       .  A
C1077      C1082   1.401       .  A
C1078      C1079   1.408       .  A
C1078      H1091   1.083       .  S
C1079      C1080   1.419       .  A
C1079      H1092   1.078       .  S
C1080      C1086   1.437       .  A
C1080      C1081   1.422       .  A
C1081      C1083   1.398       .  A
C1081      C1082   1.402       .  A
C1082      H1093   1.085       .  S
C1083      C1084   1.387       .  A
C1083      H1094   1.084       .  S
C1084      C1085   1.398       .  A
C1084      H1095   1.084       .  S
C1085      C1086   1.424       .  A
C1085      C1090   1.404       .  A
C1086      C1087   1.418       .  A
C1087      C1088   1.405       .  A
C1087      H1096   1.078       .  S
C1088      C1089   1.401       .  A
C1088      H1097   1.083       .  S
C1089      C1090   1.398       .  A
C1090      H1098   1.085       .  S
C1099      C1100   1.400       .  A
C1099      C1104   1.403       .  A
C1100      C1101   1.400       .  A
C1100      H1113   1.083       .  S
C1101      C1102   1.417       .  A
C1101      H1114   1.077       .  S
C1102      C1108   1.432       .  A
C1102      C1103   1.422       .  A
C1103      C1105   1.400       .  A
C1103      C1104   1.405       .  A
C1104      H1115   1.085       .  S
C1105      C1106   1.390       .  A
C1105      H1116   1.084       .  S
C1106      C1107   1.399       .  A
C1106      H1117   1.084       .  S
C1107      C1108   1.424       .  A
C1107      C1112   1.406       .  A
C1108      C1109   1.416       .  A
C1109      C1110   1.399       .  A
C1109      H1118   1.077       .  S
C1110      C1111   1.397       .  A
C1110      H1119   1.084       .  S
C1111      C1112   1.397       .  A
C1112      H1120   1.085       .  S
C1121      C1122   1.403       .  A
C1121      C1126   1.403       .  A
C1122      C1123   1.398       .  A
C1122      H1135   1.083       .  S
C1123      C1124   1.414       .  A
C1123      H1136   1.078       .  S
C1124      C1130   1.433       .  A
C1124      C1125   1.423       .  A
C1125      C1127   1.400       .  A
C1125      C1126   1.409       .  A
C1126      H1137   1.084       .  S
C1127      C1128   1.391       .  A
C1127      H1138   1.084       .  S
C1128      C1129   1.400       .  A
C1128      H1139   1.084       .  S
C1129      C1130   1.422       .  A
C1129      C1134   1.407       .  A
C1130      C1131   1.416       .  A
C1131      C1132   1.399       .  A
C1131      H1140   1.077       .  S
C1132      C1133   1.401       .  A
C1132      H1141   1.083       .  S
C1133      C1134   1.405       .  A
C1134      H1142   1.084       .  S
C1143      C1144   1.400       .  A
C1143      C1148   1.400       .  A
C1144      C1145   1.403       .  A
C1144      H1157   1.083       .  S
C1145      C1146   1.417       .  A
C1145      H1158   1.078       .  S
C1146      C1152   1.432       .  A
C1146      C1147   1.422       .  A
C1147      C1149   1.399       .  A
C1147      C1148   1.402       .  A
C1148      H1159   1.085       .  S
C1149      C1150   1.387   1_655  A
C1149      H1160   1.084       .  S
C1150      C1151   1.399       .  A
C1150      H1161   1.084       .  S
C1151      C1152   1.422   1_455  A
C1151      C1156   1.401       .  A
C1152      C1153   1.418   1_655  A
C1153      C1154   1.403       .  A
C1153      H1162   1.078       .  S
C1154      C1155   1.399       .  A
C1154      H1163   1.083       .  S
C1155      C1156   1.400       .  A
C1156      H1164   1.085       .  S
C1165      C1166   1.398       .  A
C1165      C1170   1.403       .  A
C1166      C1167   1.399       .  A
C1166      H1179   1.083       .  S
C1167      C1168   1.417       .  A
C1167      H1180   1.078       .  S
C1168      C1174   1.432       .  A
C1168      C1169   1.421       .  A
C1169      C1171   1.401       .  A
C1169      C1170   1.407       .  A
C1170      H1181   1.085       .  S
C1171      C1172   1.392       .  A
C1171      H1182   1.084       .  S
C1172      C1173   1.400       .  A
C1172      H1183   1.084       .  S
C1173      C1174   1.424       .  A
C1173      C1178   1.410       .  A
C1174      C1175   1.414       .  A
C1175      C1176   1.397       .  A
C1175      H1184   1.077       .  S
C1176      C1177   1.399       .  A
C1176      H1185   1.084       .  S
C1177      C1178   1.401       .  A
C1178      H1186   1.085       .  S
C1187      C1188   1.399       .  A
C1187      C1192   1.403       .  A
C1188      C1189   1.399       .  A
C1188      H1201   1.083       .  S
C1189      C1190   1.417       .  A
C1189      H1202   1.077       .  S
C1190      C1196   1.431       .  A
C1190      C1191   1.421       .  A
C1191      C1193   1.400       .  A
C1191      C1192   1.403       .  A
C1192      H1203   1.084       .  S
C1193      C1194   1.390       .  A
C1193      H1204   1.084       .  S
C1194      C1195   1.399       .  A
C1194      H1205   1.084       .  S
C1195      C1196   1.424       .  A
C1195      C1200   1.407       .  A
C1196      C1197   1.413       .  A
C1197      C1198   1.395       .  A
C1197      H1206   1.077       .  S
C1198      C1199   1.402       .  A
C1198      H1207   1.083       .  S
C1199      C1200   1.401       .  A
C1200      H1208   1.084       .  S
C1209      C1210   1.397       .  A
C1209      C1214   1.400       .  A
C1210      C1211   1.399       .  A
C1210      H1223   1.083       .  S
C1211      C1212   1.417       .  A
C1211      H1224   1.078       .  S
C1212      C1218   1.429       .  A
C1212      C1213   1.421       .  A
C1213      C1215   1.400       .  A
C1213      C1214   1.404       .  A
C1214      H1225   1.085       .  S
C1215      C1216   1.391       .  A
C1215      H1226   1.084       .  S
C1216      C1217   1.400       .  A
C1216      H1227   1.084       .  S
C1217      C1218   1.424       .  A
C1217      C1222   1.407   1_556  A
C1218      C1219   1.414   1_556  A
C1219      C1220   1.395       .  A
C1219      H1228   1.078       .  S
C1220      C1221   1.400       .  A
C1220      H1229   1.084       .  S
C1221      C1222   1.399       .  A
C1222      H1230   1.085       .  S
C1231      C1232   1.397       .  A
C1231      C1236   1.403       .  A
C1232      C1233   1.400       .  A
C1232      H1245   1.083       .  S
C1233      C1234   1.417       .  A
C1233      H1246   1.078       .  S
C1234      C1240   1.430       .  A
C1234      C1235   1.420       .  A
C1235      C1237   1.401       .  A
C1235      C1236   1.405       .  A
C1236      H1247   1.085       .  S
C1237      C1238   1.392       .  A
C1237      H1248   1.084       .  S
C1238      C1239   1.400       .  A
C1238      H1249   1.084       .  S
C1239      C1240   1.425       .  A
C1239      C1244   1.409       .  A
C1240      C1241   1.413       .  A
C1241      C1242   1.396       .  A
C1241      H1250   1.078       .  S
C1242      C1243   1.399       .  A
C1242      H1251   1.084       .  S
C1243      C1244   1.399       .  A
C1244      H1252   1.085       .  S
C1253      C1254   1.401       .  A
C1253      C1258   1.402   1_545  A
C1254      C1255   1.397   1_556  A
C1254      H1267   1.083       .  S
C1255      C1256   1.414   1_545  A
C1255      H1268   1.077       .  S
C1256      C1262   1.433       .  A
C1256      C1257   1.424   1_554  A
C1257      C1259   1.399       .  A
C1257      C1258   1.409       .  A
C1258      H1269   1.084       .  S
C1259      C1260   1.391       .  A
C1259      H1270   1.084       .  S
C1260      C1261   1.400   1_556  A
C1260      H1271   1.084       .  S
C1261      C1262   1.422       .  A
C1261      C1266   1.406       .  A
C1262      C1263   1.417       .  A
C1263      C1264   1.400       .  A
C1263      H1272   1.077   1_565  S
C1264      C1265   1.400       .  A
C1264      H1273   1.083       .  S
C1265      C1266   1.404       .  A
C1266      H1274   1.084       .  S
C1275      C1276   1.400   1_545  A
C1275      C1280   1.405   1_545  A
C1276      C1277   1.401       .  A
C1276      H1289   1.083       .  S
C1277      C1278   1.417       .  A
C1277      H1290   1.077       .  S
C1278      C1284   1.433       .  A
C1278      C1279   1.421       .  A
C1279      C1281   1.400       .  A
C1279      C1280   1.406       .  A
C1280      H1291   1.084   1_565  S
C1281      C1282   1.391       .  A
C1281      H1292   1.084       .  S
C1282      C1283   1.399       .  A
C1282      H1293   1.084       .  S
C1283      C1284   1.425       .  A
C1283      C1288   1.409       .  A
C1284      C1285   1.415       .  A
C1285      C1286   1.398       .  A
C1285      H1294   1.077       .  S
C1286      C1287   1.398       .  A
C1286      H1295   1.084       .  S
C1287      C1288   1.399       .  A
C1288      H1296   1.085       .  S
C1297      C1298   1.401       .  A
C1297      C1302   1.400   1_556  A
C1298      C1299   1.399   1_556  A
C1298      H1311   1.083       .  S
C1299      C1300   1.414       .  A
C1299      H1312   1.082       .  S
C1300      C1306   1.434       .  A
C1300      C1301   1.425       .  A
C1301      C1303   1.400       .  A
C1301      C1302   1.410       .  A
C1302      H1313   1.086       .  S
C1303      C1304   1.392       .  A
C1303      H1314   1.084       .  S
C1304      C1305   1.400       .  A
C1304      H1315   1.084       .  S
C1305      C1306   1.422       .  A
C1305      C1310   1.407       .  A
C1306      C1307   1.417       .  A
C1307      C1308   1.402       .  A
C1307      H1316   1.082       .  S
C1308      C1309   1.400       .  A
C1308      H1317   1.083       .  S
C1309      C1310   1.401       .  A
C1310      H1318   1.086       .  S
C1319      C1320   1.398       .  A
C1319      C1324   1.402       .  A
C1320      C1321   1.397   1_554  A
C1320      H1333   1.083       .  S
C1321      C1322   1.416   1_655  A
C1321      H1334   1.078   1_655  S
C1322      C1328   1.428       .  A
C1322      C1323   1.421   1_556  A
C1323      C1325   1.400       .  A
C1323      C1324   1.404   1_455  A
C1324      H1335   1.085       .  S
C1325      C1326   1.391   1_554  A
C1325      H1336   1.084       .  S
C1326      C1327   1.400       .  A
C1326      H1337   1.084       .  S
C1327      C1328   1.424       .  A
C1327      C1332   1.408       .  A
C1328      C1329   1.414       .  A
C1329      C1330   1.395       .  A
C1329      H1338   1.077       .  S
C1330      C1331   1.397       .  A
C1330      H1339   1.084       .  S
C1331      C1332   1.399       .  A
C1332      H1340   1.085       .  S
C1341      C1342   1.399       .  A
C1341      C1346   1.399       .  A
C1342      C1343   1.401       .  A
C1342      H1355   1.084       .  S
C1343      C1344   1.416       .  A
C1343      H1356   1.078       .  S
C1344      C1350   1.435       .  A
C1344      C1345   1.425       .  A
C1345      C1347   1.399       .  A
C1345      C1346   1.409       .  A
C1346      H1357   1.085       .  S
C1347      C1348   1.390       .  A
C1347      H1358   1.084       .  S
C1348      C1349   1.400       .  A
C1348      H1359   1.084       .  S
C1349      C1350   1.422       .  A
C1349      C1354   1.406       .  A
C1350      C1351   1.418       .  A
C1351      C1352   1.403       .  A
C1351      H1360   1.078       .  S
C1352      C1353   1.400       .  A
C1352      H1361   1.083       .  S
C1353      C1354   1.402       .  A
C1354      H1362   1.085       .  S
C1363      C1364   1.403       .  A
C1363      C1368   1.402       .  A
C1364      C1365   1.408       .  A
C1364      H1377   1.083       .  S
C1365      C1366   1.419       .  A
C1365      H1378   1.078       .  S
C1366      C1372   1.437   1_455  A
C1366      C1367   1.422   1_455  A
C1367      C1369   1.398       .  A
C1367      C1368   1.402   1_655  A
C1368      H1379   1.085   1_455  S
C1369      C1370   1.386       .  A
C1369      H1380   1.084       .  S
C1370      C1371   1.397       .  A
C1370      H1381   1.084       .  S
C1371      C1372   1.424       .  A
C1371      C1376   1.404       .  A
C1372      C1373   1.418   1_655  A
C1373      C1374   1.406   1_455  A
C1373      H1382   1.078       .  S
C1374      C1375   1.401       .  A
C1374      H1383   1.083   1_655  S
C1375      C1376   1.397       .  A
C1376      H1384   1.085       .  S
C1385      C1386   1.397       .  A
C1385      C1390   1.397       .  A
C1386      C1387   1.397       .  A
C1386      H1399   1.084       .  S
C1387      C1388   1.416       .  A
C1387      H1400   1.078       .  S
C1388      C1394   1.430       .  A
C1388      C1389   1.424       .  A
C1389      C1391   1.399       .  A
C1389      C1390   1.405       .  A
C1390      H1401   1.085       .  S
C1391      C1392   1.390       .  A
C1391      H1402   1.084       .  S
C1392      C1393   1.400       .  A
C1392      H1403   1.084       .  S
C1393      C1394   1.422       .  A
C1393      C1398   1.404       .  A
C1394      C1395   1.416       .  A
C1395      C1396   1.398       .  A
C1395      H1404   1.078       .  S
C1396      C1397   1.399       .  A
C1396      H1405   1.083       .  S
C1397      C1398   1.401       .  A
C1398      H1406   1.085       .  S
C1407      C1408   1.398       .  A
C1407      C1412   1.401       .  A
C1408      C1409   1.402       .  A
C1408      H1421   1.083       .  S
C1409      C1410   1.418       .  A
C1409      H1422   1.078       .  S
C1410      C1416   1.434       .  A
C1410      C1411   1.422       .  A
C1411      C1413   1.400       .  A
C1411      C1412   1.406       .  A
C1412      H1423   1.085       .  S
C1413      C1414   1.391       .  A
C1413      H1424   1.084       .  S
C1414      C1415   1.400       .  A
C1414      H1425   1.084       .  S
C1415      C1416   1.424       .  A
C1415      C1420   1.409       .  A
C1416      C1417   1.415       .  A
C1417      C1418   1.399       .  A
C1417      H1426   1.078       .  S
C1418      C1419   1.401       .  A
C1418      H1427   1.084       .  S
C1419      C1420   1.401       .  A
C1420      H1428   1.085       .  S
C1429      C1430   1.399       .  A
C1429      C1434   1.401       .  A
C1430      C1431   1.402       .  A
C1430      H1443   1.083       .  S
C1431      C1432   1.418       .  A
C1431      H1444   1.077       .  S
C1432      C1438   1.433       .  A
C1432      C1433   1.422       .  A
C1433      C1435   1.400       .  A
C1433      C1434   1.404       .  A
C1434      H1445   1.085       .  S
C1435      C1436   1.389       .  A
C1435      H1446   1.084       .  S
C1436      C1437   1.399       .  A
C1436      H1447   1.084       .  S
C1437      C1438   1.425       .  A
C1437      C1442   1.407       .  A
C1438      C1439   1.415       .  A
C1439      C1440   1.399       .  A
C1439      H1448   1.077       .  S
C1440      C1441   1.398       .  A
C1440      H1449   1.084       .  S
C1441      C1442   1.398       .  A
C1442      H1450   1.085       .  S
C1451      C1452   1.399       .  A
C1451      C1456   1.399       .  A
C1452      C1453   1.402       .  A
C1452      H1465   1.083       .  S
C1453      C1454   1.418       .  A
C1453      H1466   1.078       .  S
C1454      C1460   1.432       .  A
C1454      C1455   1.422       .  A
C1455      C1457   1.399       .  A
C1455      C1456   1.403       .  A
C1456      H1467   1.085       .  S
C1457      C1458   1.389       .  A
C1457      H1468   1.084       .  S
C1458      C1459   1.399       .  A
C1458      H1469   1.084       .  S
C1459      C1460   1.425       .  A
C1459      C1464   1.406       .  A
C1460      C1461   1.415       .  A
C1461      C1462   1.399       .  A
C1461      H1470   1.078       .  S
C1462      C1463   1.401       .  A
C1462      H1471   1.084       .  S
C1463      C1464   1.398       .  A
C1464      H1472   1.085       .  S
C1473      C1474   1.401       .  A
C1473      C1478   1.403       .  A
C1474      C1475   1.394       .  A
C1474      H1487   1.083       .  S
C1475      C1476   1.414       .  A
C1475      H1488   1.077       .  S
C1476      C1482   1.430       .  A
C1476      C1477   1.423       .  A
C1477      C1479   1.400       .  A
C1477      C1478   1.407       .  A
C1478      H1489   1.084       .  S
C1479      C1480   1.391       .  A
C1479      H1490   1.084       .  S
C1480      C1481   1.400       .  A
C1480      H1491   1.084       .  S
C1481      C1482   1.422       .  A
C1481      C1486   1.406       .  A
C1482      C1483   1.415       .  A
C1483      C1484   1.395       .  A
C1483      H1492   1.077       .  S
C1484      C1485   1.401       .  A
C1484      H1493   1.083       .  S
C1485      C1486   1.403       .  A
C1486      H1494   1.084       .  S
C1495      C1496   1.403       .  A
C1495      C1500   1.403       .  A
C1496      C1497   1.395       .  A
C1496      H1509   1.083       .  S
C1497      C1498   1.412       .  A
C1497      H1510   1.078       .  S
C1498      C1504   1.433       .  A
C1498      C1499   1.424       .  A
C1499      C1501   1.400       .  A
C1499      C1500   1.412       .  A
C1500      H1511   1.084       .  S
C1501      C1502   1.393       .  A
C1501      H1512   1.084       .  S
C1502      C1503   1.401       .  A
C1502      H1513   1.084       .  S
C1503      C1504   1.422       .  A
C1503      C1508   1.408       .  A
C1504      C1505   1.418       .  A
C1505      C1506   1.399       .  A
C1505      H1514   1.078       .  S
C1506      C1507   1.396       .  A
C1506      H1515   1.084       .  S
C1507      C1508   1.400       .  A
C1508      H1516   1.085       .  S
C1517      C1518   1.399       .  A
C1517      C1522   1.401       .  A
C1518      C1519   1.397       .  A
C1518      H1531   1.084       .  S
C1519      C1520   1.415       .  A
C1519      H1532   1.078       .  S
C1520      C1526   1.430       .  A
C1520      C1521   1.422       .  A
C1521      C1523   1.400       .  A
C1521      C1522   1.406       .  A
C1522      H1533   1.085       .  S
C1523      C1524   1.391       .  A
C1523      H1534   1.084       .  S
C1524      C1525   1.400       .  A
C1524      H1535   1.084       .  S
C1525      C1526   1.424       .  A
C1525      C1530   1.408       .  A
C1526      C1527   1.415       .  A
C1527      C1528   1.396       .  A
C1527      H1536   1.077       .  S
C1528      C1529   1.398       .  A
C1528      H1537   1.084       .  S
C1529      C1530   1.399       .  A
C1530      H1538   1.085       .  S
C1539      C1540   1.401       .  A
C1539      C1544   1.401       .  A
C1540      C1541   1.401       .  A
C1540      H1553   1.084       .  S
C1541      C1542   1.415       .  A
C1541      H1554   1.078       .  S
C1542      C1548   1.435       .  A
C1542      C1543   1.424       .  A
C1543      C1545   1.400       .  A
C1543      C1544   1.410       .  A
C1544      H1555   1.085       .  S
C1545      C1546   1.391       .  A
C1545      H1556   1.084       .  S
C1546      C1547   1.400       .  A
C1546      H1557   1.084       .  S
C1547      C1548   1.422       .  A
C1547      C1552   1.407       .  A
C1548      C1549   1.418       .  A
C1549      C1550   1.403       .  A
C1549      H1558   1.078       .  S
C1550      C1551   1.399       .  A
C1550      H1559   1.083       .  S
C1551      C1552   1.401       .  A
C1552      H1560   1.085       .  S
C1561      C1562   1.399       .  A
C1561      C1566   1.401       .  A
C1562      C1563   1.402       .  A
C1562      H1575   1.083       .  S
C1563      C1564   1.418       .  A
C1563      H1576   1.078       .  S
C1564      C1570   1.432       .  A
C1564      C1565   1.421       .  A
C1565      C1567   1.399       .  A
C1565      C1566   1.402       .  A
C1566      H1577   1.085       .  S
C1567      C1568   1.388       .  A
C1567      H1578   1.084       .  S
C1568      C1569   1.398       .  A
C1568      H1579   1.084       .  S
C1569      C1570   1.425       .  A
C1569      C1574   1.404       .  A
C1570      C1571   1.416       .  A
C1571      C1572   1.399       .  A
C1571      H1580   1.078       .  S
C1572      C1573   1.398       .  A
C1572      H1581   1.084       .  S
C1573      C1574   1.395       .  A
C1574      H1582   1.085       .  S
C1583      C1584   1.399       .  A
C1583      C1588   1.400       .  A
C1584      C1585   1.405       .  A
C1584      H1597   1.083       .  S
C1585      C1586   1.420       .  A
C1585      H1598   1.078       .  S
C1586      C1592   1.433       .  A
C1586      C1587   1.421       .  A
C1587      C1589   1.399       .  A
C1587      C1588   1.401       .  A
C1588      H1599   1.085       .  S
C1589      C1590   1.387       .  A
C1589      H1600   1.084       .  S
C1590      C1591   1.398       .  A
C1590      H1601   1.084       .  S
C1591      C1592   1.425       .  A
C1591      C1596   1.405       .  A
C1592      C1593   1.416       .  A
C1593      C1594   1.401       .  A
C1593      H1602   1.078       .  S
C1594      C1595   1.400       .  A
C1594      H1603   1.084       .  S
C1595      C1596   1.395       .  A
C1596      H1604   1.085       .  S
C1605      C1606   1.402       .  A
C1605      C1610   1.400       .  A
C1606      C1607   1.407       .  A
C1606      H1619   1.083       .  S
C1607      C1608   1.418       .  A
C1607      H1620   1.078       .  S
C1608      C1614   1.437       .  A
C1608      C1609   1.423       .  A
C1609      C1611   1.398       .  A
C1609      C1610   1.402       .  A
C1610      H1621   1.085       .  S
C1611      C1612   1.386       .  A
C1611      H1622   1.084       .  S
C1612      C1613   1.398       .  A
C1612      H1623   1.084       .  S
C1613      C1614   1.423       .  A
C1613      C1618   1.402       .  A
C1614      C1615   1.419       .  A
C1615      C1616   1.407       .  A
C1615      H1624   1.078       .  S
C1616      C1617   1.400       .  A
C1616      H1625   1.083       .  S
C1617      C1618   1.398       .  A
C1618      H1626   1.085       .  S
C1627      C1628   1.401       .  A
C1627      C1632   1.398       .  A
C1628      C1629   1.399       .  A
C1628      H1641   1.084       .  S
C1629      C1630   1.415       .  A
C1629      H1642   1.078       .  S
C1630      C1636   1.433       .  A
C1630      C1631   1.425       .  A
C1631      C1633   1.399       .  A
C1631      C1632   1.407       .  A
C1632      H1643   1.085       .  S
C1633      C1634   1.390       .  A
C1633      H1644   1.084       .  S
C1634      C1635   1.400       .  A
C1634      H1645   1.084       .  S
C1635      C1636   1.422       .  A
C1635      C1640   1.405       .  A
C1636      C1637   1.418       .  A
C1637      C1638   1.402       .  A
C1637      H1646   1.078       .  S
C1638      C1639   1.399       .  A
C1638      H1647   1.083       .  S
C1639      C1640   1.401       .  A
C1640      H1648   1.085       .  S
C1649      C1650   1.398       .  A
C1649      C1654   1.400       .  A
C1650      C1651   1.402       .  A
C1650      H1663   1.083       .  S
C1651      C1652   1.419       .  A
C1651      H1664   1.078       .  S
C1652      C1658   1.432       .  A
C1652      C1653   1.421       .  A
C1653      C1655   1.399       .  A
C1653      C1654   1.402       .  A
C1654      H1665   1.085       .  S
C1655      C1656   1.389       .  A
C1655      H1666   1.084       .  S
C1656      C1657   1.399       .  A
C1656      H1667   1.084       .  S
C1657      C1658   1.425       .  A
C1657      C1662   1.407       .  A
C1658      C1659   1.415       .  A
C1659      C1660   1.399       .  A
C1659      H1668   1.078       .  S
C1660      C1661   1.399       .  A
C1660      H1669   1.084       .  S
C1661      C1662   1.397       .  A
C1662      H1670   1.085       .  S
C1671      C1672   1.401       .  A
C1671      C1676   1.404       .  A
C1672      C1673   1.404       .  A
C1672      H1685   1.083       .  S
C1673      C1674   1.418       .  A
C1673      H1686   1.078       .  S
C1674      C1680   1.435       .  A
C1674      C1675   1.422       .  A
C1675      C1677   1.400       .  A
C1675      C1676   1.406       .  A
C1676      H1687   1.085       .  S
C1677      C1678   1.390       .  A
C1677      H1688   1.084       .  S
C1678      C1679   1.399       .  A
C1678      H1689   1.084       .  S
C1679      C1680   1.425       .  A
C1679      C1684   1.408       .  A
C1680      C1681   1.416       .  A
C1681      C1682   1.401       .  A
C1681      H1690   1.078       .  S
C1682      C1683   1.399       .  A
C1682      H1691   1.084       .  S
C1683      C1684   1.398       .  A
C1684      H1692   1.085       .  S
C1693      C1694   1.398       .  A
C1693      C1698   1.397       .  A
C1694      C1695   1.397       .  A
C1694      H1707   1.084       .  S
C1695      C1696   1.415       .  A
C1695      H1708   1.078       .  S
C1696      C1702   1.430       .  A
C1696      C1697   1.424       .  A
C1697      C1699   1.399       .  A
C1697      C1698   1.405       .  A
C1698      H1709   1.085       .  S
C1699      C1700   1.389       .  A
C1699      H1710   1.084       .  S
C1700      C1701   1.399       .  A
C1700      H1711   1.084       .  S
C1701      C1702   1.422       .  A
C1701      C1706   1.404       .  A
C1702      C1703   1.416       .  A
C1703      C1704   1.399       .  A
C1703      H1712   1.078       .  S
C1704      C1705   1.399       .  A
C1704      H1713   1.083       .  S
C1705      C1706   1.400       .  A
C1706      H1714   1.085       .  S
C1715      C1716   1.398       .  A
C1715      C1720   1.397       .  A
C1716      C1717   1.392       .  A
C1716      H1729   1.084       .  S
C1717      C1718   1.412       .  A
C1717      H1730   1.077       .  S
C1718      C1724   1.429       .  A
C1718      C1719   1.426       .  A
C1719      C1721   1.399       .  A
C1719      C1720   1.408       .  A
C1720      H1731   1.085   1_565  S
C1721      C1722   1.390       .  A
C1721      H1732   1.084       .  S
C1722      C1723   1.400       .  A
C1722      H1733   1.084       .  S
C1723      C1724   1.420       .  A
C1723      C1728   1.402       .  A
C1724      C1725   1.418       .  A
C1725      C1726   1.398       .  A
C1725      H1734   1.077       .  S
C1726      C1727   1.397       .  A
C1726      H1735   1.083       .  S
C1727      C1728   1.403       .  A
C1728      H1736   1.085       .  S
C1737      C1738   1.399       .  A
C1737      C1742   1.397       .  A
C1738      C1739   1.402       .  A
C1738      H1751   1.084       .  S
C1739      C1740   1.416       .  A
C1739      H1752   1.078       .  S
C1740      C1746   1.436       .  A
C1740      C1741   1.425       .  A
C1741      C1743   1.398       .  A
C1741      C1742   1.407       .  A
C1742      H1753   1.085       .  S
C1743      C1744   1.388       .  A
C1743      H1754   1.084       .  S
C1744      C1745   1.399       .  A
C1744      H1755   1.084       .  S
C1745      C1746   1.421       .  A
C1745      C1750   1.403       .  A
C1746      C1747   1.419       .  A
C1747      C1748   1.405       .  A
C1747      H1756   1.078       .  S
C1748      C1749   1.402       .  A
C1748      H1757   1.083   1_565  S
C1749      C1750   1.403       .  A
C1750      H1758   1.084       .  S
C1759      C1760   1.401       .  A
C1759      C1764   1.406       .  A
C1760      C1761   1.401       .  A
C1760      H1773   1.083       .  S
C1761      C1762   1.417       .  A
C1761      H1774   1.078       .  S
C1762      C1768   1.434       .  A
C1762      C1763   1.421       .  A
C1763      C1765   1.400       .  A
C1763      C1764   1.406       .  A
C1764      H1775   1.084       .  S
C1765      C1766   1.391       .  A
C1765      H1776   1.084       .  S
C1766      C1767   1.399       .  A
C1766      H1777   1.084       .  S
C1767      C1768   1.424       .  A
C1767      C1772   1.409       .  A
C1768      C1769   1.414       .  A
C1769      C1770   1.398       .  A
C1769      H1778   1.078       .  S
C1770      C1771   1.403       .  A
C1770      H1779   1.083       .  S
C1771      C1772   1.403       .  A
C1772      H1780   1.084       .  S
C1781      C1782   1.400       .  A
C1781      C1786   1.396       .  A
C1782      C1783   1.398       .  A
C1782      H1795   1.084       .  S
C1783      C1784   1.415       .  A
C1783      H1796   1.077       .  S
C1784      C1790   1.433       .  A
C1784      C1785   1.425       .  A
C1785      C1787   1.398       .  A
C1785      C1786   1.406       .  A
C1786      H1797   1.085       .  S
C1787      C1788   1.389       .  A
C1787      H1798   1.084       .  S
C1788      C1789   1.399       .  A
C1788      H1799   1.084       .  S
C1789      C1790   1.421       .  A
C1789      C1794   1.403       .  A
C1790      C1791   1.419       .  A
C1791      C1792   1.403       .  A
C1791      H1800   1.077       .  S
C1792      C1793   1.399       .  A
C1792      H1801   1.083       .  S
C1793      C1794   1.401       .  A
C1794      H1802   1.085       .  S
C1803      C1804   1.401       .  A
C1803      C1808   1.401       .  A
C1804      C1805   1.406       .  A
C1804      H1817   1.083       .  S
C1805      C1806   1.419       .  A
C1805      H1818   1.078       .  S
C1806      C1812   1.435       .  A
C1806      C1807   1.421       .  A
C1807      C1809   1.399       .  A
C1807      C1808   1.403       .  A
C1808      H1819   1.085       .  S
C1809      C1810   1.388       .  A
C1809      H1820   1.084       .  S
C1810      C1811   1.398       .  A
C1810      H1821   1.084       .  S
C1811      C1812   1.425       .  A
C1811      C1816   1.405       .  A
C1812      C1813   1.416       .  A
C1813      C1814   1.402       .  A
C1813      H1822   1.078       .  S
C1814      C1815   1.401       .  A
C1814      H1823   1.084       .  S
C1815      C1816   1.396       .  A
C1816      H1824   1.085       .  S
C1825      C1826   1.402       .  A
C1825      C1830   1.401       .  A
C1826      C1827   1.397   1_556  A
C1826      H1839   1.083       .  S
C1827      C1828   1.414       .  A
C1827      H1840   1.078       .  S
C1828      C1834   1.431       .  A
C1828      C1829   1.423   1_554  A
C1829      C1831   1.399   1_655  A
C1829      C1830   1.406       .  A
C1830      H1841   1.085       .  S
C1831      C1832   1.389       .  A
C1831      H1842   1.084       .  S
C1832      C1833   1.399   1_556  A
C1832      H1843   1.084       .  S
C1833      C1834   1.422   1_455  A
C1833      C1838   1.404       .  A
C1834      C1835   1.417       .  A
C1835      C1836   1.399       .  A
C1835      H1844   1.077       .  S
C1836      C1837   1.400   1_655  A
C1836      H1845   1.083       .  S
C1837      C1838   1.403       .  A
C1838      H1846   1.085       .  S
C1847      C1848   1.398       .  A
C1847      C1852   1.397       .  A
C1848      C1849   1.396       .  A
C1848      H1861   1.084       .  S
C1849      C1850   1.414       .  A
C1849      H1862   1.077       .  S
C1850      C1856   1.431       .  A
C1850      C1851   1.425       .  A
C1851      C1853   1.399       .  A
C1851      C1852   1.407       .  A
C1852      H1863   1.085       .  S
C1853      C1854   1.390   1_556  A
C1853      H1864   1.084       .  S
C1854      C1855   1.400       .  A
C1854      H1865   1.084       .  S
C1855      C1856   1.421   1_554  A
C1855      C1860   1.404       .  A
C1856      C1857   1.417       .  A
C1857      C1858   1.400       .  A
C1857      H1866   1.077       .  S
C1858      C1859   1.399   1_556  A
C1858      H1867   1.083       .  S
C1859      C1860   1.401       .  A
C1860      H1868   1.085       .  S
C1869      C1870   1.404       .  A
C1869      C1874   1.402       .  A
C1870      C1871   1.398       .  A
C1870      H1883   1.083       .  S
C1871      C1872   1.414       .  A
C1871      H1884   1.078       .  S
C1872      C1878   1.434       .  A
C1872      C1873   1.424       .  A
C1873      C1875   1.399       .  A
C1873      C1874   1.407       .  A
C1874      H1885   1.084       .  S
C1875      C1876   1.389       .  A
C1875      H1886   1.084       .  S
C1876      C1877   1.400       .  A
C1876      H1887   1.084       .  S
C1877      C1878   1.421       .  A
C1877      C1882   1.404       .  A
C1878      C1879   1.417       .  A
C1879      C1880   1.401       .  A
C1879      H1888   1.077       .  S
C1880      C1881   1.402       .  A
C1880      H1889   1.083       .  S
C1881      C1882   1.404       .  A
C1882      H1890   1.084       .  S
C1891      C1892   1.400   1_455  A
C1891      C1896   1.398       .  A
C1892      C1893   1.405       .  A
C1892      H1905   1.083       .  S
C1893      C1894   1.418       .  A
C1893      H1906   1.078       .  S
C1894      C1900   1.434       .  A
C1894      C1895   1.423   1_655  A
C1895      C1897   1.397       .  A
C1895      C1896   1.400       .  A
C1896      H1907   1.085       .  S
C1897      C1898   1.385       .  A
C1897      H1908   1.084       .  S
C1898      C1899   1.398   1_455  A
C1898      H1909   1.084       .  S
C1899      C1900   1.422       .  A
C1899      C1904   1.399       .  A
C1900      C1901   1.419       .  A
C1901      C1902   1.406       .  A
C1901      H1910   1.078       .  S
C1902      C1903   1.401       .  A
C1902      H1911   1.083       .  S
C1903      C1904   1.400       .  A
C1904      H1912   1.085       .  S
C1913      C1914   1.399       .  A
C1913      C1918   1.398       .  A
C1914      C1915   1.398       .  A
C1914      H1927   1.084       .  S
C1915      C1916   1.415       .  A
C1915      H1928   1.078       .  S
C1916      C1922   1.432       .  A
C1916      C1917   1.425       .  A
C1917      C1919   1.399       .  A
C1917      C1918   1.408       .  A
C1918      H1929   1.085       .  S
C1919      C1920   1.390       .  A
C1919      H1930   1.084       .  S
C1920      C1921   1.400       .  A
C1920      H1931   1.084       .  S
C1921      C1922   1.421       .  A
C1921      C1926   1.403   1_554  A
C1922      C1923   1.419       .  A
C1923      C1924   1.402       .  A
C1923      H1932   1.078       .  S
C1924      C1925   1.398   1_554  A
C1924      H1933   1.083       .  S
C1925      C1926   1.401       .  A
C1926      H1934   1.085       .  S
C1935      C1936   1.397       .  A
C1935      C1940   1.400       .  A
C1936      C1937   1.400       .  A
C1936      H1949   1.084       .  S
C1937      C1938   1.418       .  A
C1937      H1950   1.077       .  S
C1938      C1944   1.433       .  A
C1938      C1939   1.422       .  A
C1939      C1941   1.400       .  A
C1939      C1940   1.407       .  A
C1940      H1951   1.085       .  S
C1941      C1942   1.392       .  A
C1941      H1952   1.084       .  S
C1942      C1943   1.400       .  A
C1942      H1953   1.084       .  S
C1943      C1944   1.425       .  A
C1943      C1948   1.411       .  A
C1944      C1945   1.413       .  A
C1945      C1946   1.396       .  A
C1945      H1954   1.077       .  S
C1946      C1947   1.401       .  A
C1946      H1955   1.084       .  S
C1947      C1948   1.400       .  A
C1948      H1956   1.084       .  S
C1957      C1958   1.399       .  A
C1957      C1962   1.396       .  A
C1958      C1959   1.399       .  A
C1958      H1971   1.084       .  S
C1959      C1960   1.415       .  A
C1959      H1972   1.078       .  S
C1960      C1966   1.434       .  A
C1960      C1961   1.426       .  A
C1961      C1963   1.398       .  A
C1961      C1962   1.406       .  A
C1962      H1973   1.085       .  S
C1963      C1964   1.388       .  A
C1963      H1974   1.084       .  S
C1964      C1965   1.399       .  A
C1964      H1975   1.084       .  S
C1965      C1966   1.421       .  A
C1965      C1970   1.402       .  A
C1966      C1967   1.419       .  A
C1967      C1968   1.404       .  A
C1967      H1976   1.078       .  S
C1968      C1969   1.400       .  A
C1968      H1977   1.083       .  S
C1969      C1970   1.402       .  A
C1970      H1978   1.085       .  S
C1979      C1980   1.405       .  A
C1979      C1984   1.402       .  A
C1980      C1981   1.399       .  A
C1980      H1993   1.083       .  S
C1981      C1982   1.413   1_545  A
C1981      H1994   1.078       .  S
C1982      C1988   1.437       .  A
C1982      C1983   1.425       .  A
C1983      C1985   1.399       .  A
C1983      C1984   1.411   1_565  A
C1984      H1995   1.084   1_545  S
C1985      C1986   1.390       .  A
C1985      H1996   1.084       .  S
C1986      C1987   1.400       .  A
C1986      H1997   1.084       .  S
C1987      C1988   1.420       .  A
C1987      C1992   1.405       .  A
C1988      C1989   1.420       .  A
C1989      C1990   1.405       .  A
C1989      H1998   1.078   1_565  S
C1990      C1991   1.402       .  A
C1990      H1999   1.083       .  S
C1991      C1992   1.406       .  A
C1992      H2000   1.084       .  S
C2001      C2002   1.398       .  A
C2001      C2006   1.397       .  A
C2002      C2003   1.397       .  A
C2002      H2015   1.084       .  S
C2003      C2004   1.415       .  A
C2003      H2016   1.078       .  S
C2004      C2010   1.431       .  A
C2004      C2005   1.425       .  A
C2005      C2007   1.399       .  A
C2005      C2006   1.407       .  A
C2006      H2017   1.085       .  S
C2007      C2008   1.390       .  A
C2007      H2018   1.084       .  S
C2008      C2009   1.400       .  A
C2008      H2019   1.084       .  S
C2009      C2010   1.421       .  A
C2009      C2014   1.404       .  A
C2010      C2011   1.417       .  A
C2011      C2012   1.400       .  A
C2011      H2020   1.078       .  S
C2012      C2013   1.399       .  A
C2012      H2021   1.083       .  S
C2013      C2014   1.402       .  A
C2014      H2022   1.085       .  S
C2023      C2024   1.400       .  A
C2023      C2028   1.398       .  A
C2024      C2025   1.404   1_565  A
C2024      H2037   1.083       .  S
C2025      C2026   1.419   1_545  A
C2025      H2038   1.078       .  S
C2026      C2032   1.432   1_565  A
C2026      C2027   1.422       .  A
C2027      C2029   1.398       .  A
C2027      C2028   1.398       .  A
C2028      H2039   1.085       .  S
C2029      C2030   1.385       .  A
C2029      H2040   1.084       .  S
C2030      C2031   1.397       .  A
C2030      H2041   1.084       .  S
C2031      C2032   1.423   1_565  A
C2031      C2036   1.400   1_565  A
C2032      C2033   1.417       .  A
C2033      C2034   1.403       .  A
C2033      H2042   1.078       .  S
C2034      C2035   1.400       .  A
C2034      H2043   1.083       .  S
C2035      C2036   1.397       .  A
C2036      H2044   1.085   1_545  S
C2045      C2046   1.403       .  A
C2045      C2050   1.402       .  A
C2046      C2047   1.408   1_565  A
C2046      H2059   1.083       .  S
C2047      C2048   1.419       .  A
C2047      H2060   1.078       .  S
C2048      C2054   1.436       .  A
C2048      C2049   1.421       .  A
C2049      C2051   1.398       .  A
C2049      C2050   1.397   1_545  A
C2050      H2061   1.084       .  S
C2051      C2052   1.383       .  A
C2051      H2062   1.084       .  S
C2052      C2053   1.396       .  A
C2052      H2063   1.084       .  S
C2053      C2054   1.424       .  A
C2053      C2058   1.398       .  A
C2054      C2055   1.419       .  A
C2055      C2056   1.407       .  A
C2055      H2064   1.078       .  S
C2056      C2057   1.400       .  A
C2056      H2065   1.083       .  S
C2057      C2058   1.394       .  A
C2058      H2066   1.086       .  S
C2067      C2068   1.401       .  A
C2067      C2072   1.405       .  A
C2068      C2069   1.401       .  A
C2068      H2081   1.083       .  S
C2069      C2070   1.418       .  A
C2069      H2082   1.078       .  S
C2070      C2076   1.433       .  A
C2070      C2071   1.421       .  A
C2071      C2073   1.400       .  A
C2071      C2072   1.404       .  A
C2072      H2083   1.084       .  S
C2073      C2074   1.389       .  A
C2073      H2084   1.084       .  S
C2074      C2075   1.399       .  A
C2074      H2085   1.084       .  S
C2075      C2076   1.424       .  A
C2075      C2080   1.408       .  A
C2076      C2077   1.413       .  A
C2077      C2078   1.397       .  A
C2077      H2086   1.078       .  S
C2078      C2079   1.404       .  A
C2078      H2087   1.083       .  S
C2079      C2080   1.402       .  A
C2080      H2088   1.084       .  S
