geometry optimzed in LAMMPS
_audit_creation_date              2020-12-01 
_audit_creation_method            'lammps2cif' 
_symmetry_space_group_name_H-M    'P1' 
_symmetry_Int_Tables_number       1 
_symmetry_cell_setting            triclinic 
loop_ 
_symmetry_equiv_pos_as_xyz 
  x,y,z 
_cell_length_a                    75.20707666 
_cell_length_b                    75.04338129329479 
_cell_length_c                    75.28088079256939 
_cell_angle_alpha                 89.99962086430646 
_cell_angle_beta                  90.0809968700203 
_cell_angle_gamma                 90.13544514745614 
loop_ 
_atom_site_label 
_atom_site_type_symbol 
_atom_site_fract_x 
_atom_site_fract_y 
_atom_site_fract_z 
_atom_site_charge 
O1          O  0.27460604  0.86765483  0.28293820    -0.56900
C2          C  0.22626844  0.87523166  0.27060595     0.75700
O3          O  0.26472294  0.91934213  0.25281075    -0.58000
C4          C  0.29046961  0.87016845  0.27775642     0.75700
C5          C  0.26316765  0.87217450  0.22543577     0.78100
Cd6        Cd  0.26111060  0.88767715  0.26076271     1.37500
O7          O  0.24018989  0.86816032  0.27694539    -0.56900
O8          O  0.24978725  0.88105270  0.23035647    -0.55700
C9          C  0.26247838  0.92535432  0.26836448     0.78100
O10         O  0.27604253  0.87199312  0.23618381    -0.58100
O11         O  0.22868916  0.88839401  0.26043863    -0.56500
O12         O  0.29259304  0.88179623  0.26575162    -0.56500
O13         O  0.26073087  0.91380407  0.28043957    -0.55700
O14         O  0.25401618  0.11104993  0.25906760    -0.56900
C15         C  0.24301723  0.11253581  0.31192628     0.75700
O16         O  0.20065648  0.09706119  0.28407506    -0.58000
C17         C  0.24724455  0.10505506  0.24482189     0.75700
C18         C  0.23941773  0.05712110  0.28098621     0.78100
Cd19       Cd  0.23320804  0.09510997  0.27902319     1.37500
O20         O  0.25333432  0.11293362  0.29862587    -0.56900
O21         O  0.25165779  0.06844293  0.28355966    -0.55700
C22         C  0.19892518  0.11167601  0.27582103     0.78100
O23         O  0.22411900  0.06342554  0.27796235    -0.58100
O24         O  0.22914441  0.10316656  0.31015632    -0.56500
O25         O  0.23486885  0.09374173  0.24665506    -0.56500
O26         O  0.21272341  0.11781396  0.26845002    -0.55700
O27         O  0.27648786  0.73825055  0.90301975    -0.56900
C28         C  0.22381995  0.73914835  0.91302859     0.75700
O29         O  0.25438603  0.76853074  0.95128989    -0.58000
C30         C  0.28910919  0.74944333  0.90243144     0.75700
C31         C  0.24969841  0.79102506  0.90419592     0.78100
Cd32       Cd  0.25663767  0.75744388  0.92094416     1.37500
O33         O  0.23859209  0.73303806  0.90768551    -0.56900
O34         O  0.24255370  0.77663039  0.89914814    -0.55700
C35         C  0.25965220  0.75452751  0.95894350     0.78100
O36         O  0.26012666  0.79007579  0.91737505    -0.58100
O37         O  0.22455750  0.75304340  0.92250369    -0.56500
O38         O  0.28696275  0.76356027  0.91130991    -0.56500
O39         O  0.26431831  0.74188158  0.94885700    -0.55700
O40         O  0.23642646  0.75720592  0.15135794    -0.56900
C41         C  0.23594943  0.70918373  0.14568870     0.75700
O42         O  0.19499950  0.72667485  0.13119685    -0.58000
C43         C  0.23880540  0.77168315  0.14307930     0.75700
C44         C  0.23414806  0.73939683  0.08926251     0.78100
Cd45       Cd  0.22445113  0.74011731  0.12634924     1.37500
O46         O  0.24443164  0.72376925  0.14651710    -0.56900
O47         O  0.24494361  0.73506742  0.10139784    -0.55700
C48         C  0.18763093  0.74070825  0.13673613     0.78100
O49         O  0.21862653  0.74338994  0.09433477    -0.58100
O50         O  0.22336947  0.70857335  0.13454242    -0.56500
O51         O  0.23493573  0.77147037  0.12671441    -0.56500
O52         O  0.19669970  0.75486017  0.13532987    -0.55700
O53         O  0.87329763  0.75356602  0.76612218    -0.56900
C54         C  0.88339302  0.75517065  0.81544591     0.75700
O55         O  0.92940891  0.77442538  0.78361295    -0.58000
C56         C  0.87708377  0.75995120  0.75101342     0.75700
C57         C  0.88382439  0.80519991  0.78425366     0.78100
Cd58       Cd  0.89695566  0.76926738  0.78248585     1.37500
O59         O  0.87845308  0.74909159  0.80050261    -0.56900
O60         O  0.88414052  0.79494317  0.79754068    -0.55700
C61         C  0.93361049  0.75819300  0.78187883     0.78100
O62         O  0.89179683  0.79969723  0.77053939    -0.58100
O63         O  0.89525794  0.76717729  0.81501338    -0.56500
O64         O  0.89094548  0.76952104  0.75032743    -0.56500
O65         O  0.92089556  0.74739384  0.77958585    -0.55700
O66         O  0.11163333  0.74695881  0.78594400    -0.56900
C67         C  0.11590900  0.69743058  0.79061616     0.75700
O68         O  0.10576087  0.71231081  0.83658447    -0.58000
C69         C  0.10619680  0.76119915  0.79312587     0.75700
C70         C  0.06035219  0.72422326  0.80444288     0.78100
Cd71       Cd  0.09819892  0.72646720  0.80759739     1.37500
O72         O  0.11741190  0.71323103  0.78488542    -0.56900
O73         O  0.07052561  0.71981412  0.79185910    -0.55700
C74         C  0.11679980  0.72423436  0.84102195     0.78100
O75         O  0.06781446  0.72877818  0.81882027    -0.58100
O76         O  0.10528177  0.69515693  0.80340726    -0.56500
O77         O  0.09642451  0.75931235  0.80669560    -0.56500
O78         O  0.11816771  0.73738587  0.83063479    -0.55700
O79         O  0.22656650  0.11224427  0.79247669    -0.56900
C80         C  0.27761024  0.11092722  0.80221749     0.75700
O81         O  0.25384631  0.10137599  0.84622706    -0.58000
C82         C  0.21173789  0.10795741  0.79931894     0.75700
C83         C  0.24252906  0.05850926  0.80780912     0.78100
Cd84       Cd  0.24469710  0.09620102  0.81455994     1.37500
O85         O  0.26293647  0.11444493  0.79474535    -0.56900
O86         O  0.24735516  0.06946931  0.79601049    -0.55700
C87         C  0.24350202  0.11452949  0.84822705     0.78100
O88         O  0.23960437  0.06492814  0.82309816    -0.58100
O89         O  0.27709397  0.09981344  0.81484494    -0.56500
O90         O  0.21241520  0.09765446  0.81261141    -0.56500
O91         O  0.23340765  0.11809572  0.83531548    -0.55700
O92         O  0.22610048  0.87267295  0.76203340    -0.56900
C93         C  0.22296803  0.87801710  0.81039005     0.75700
O94         O  0.19647049  0.92360158  0.78270112    -0.58000
C95         C  0.21956946  0.87632961  0.74696794     0.75700
C96         C  0.17160291  0.87378120  0.77938001     0.78100
Cd97       Cd  0.20581046  0.89186307  0.77910594     1.37500
O98         O  0.22820340  0.87431117  0.79484768    -0.56900
O99         O  0.18151120  0.87473771  0.79290931    -0.55700
C100        C  0.21198189  0.92998686  0.78105211     0.78100
O101        O  0.17663462  0.88264235  0.76600126    -0.58100
O102        O  0.21002242  0.88874672  0.81144285    -0.56500
O103        O  0.20746728  0.88803081  0.74675308    -0.56500
O104        O  0.22409171  0.91885563  0.77772615    -0.55700
O105        O  0.11540056  0.26029737  0.27749618    -0.56900
C106        C  0.10891600  0.20751091  0.26931690     0.75700
O107        O  0.06675703  0.24026174  0.24574116    -0.58000
C108        C  0.11200058  0.27493613  0.26983658     0.75700
C109        C  0.11650797  0.24030088  0.22433167     0.78100
Cd110      Cd  0.09737095  0.24175169  0.25701097     1.37500
O111        O  0.11230683  0.22157278  0.27810580    -0.56900
O112        O  0.10217071  0.24912398  0.22491979    -0.55700
C113        C  0.05958475  0.23971038  0.26092848     0.78100
O114        O  0.12098025  0.23229945  0.23835523    -0.58100
O115        O  0.09894940  0.20937297  0.25588304    -0.56500
O116        O  0.10078296  0.27419984  0.25735183    -0.56500
O117        O  0.07002083  0.24053524  0.27411540    -0.55700
O118        O  0.86917076  0.24100515  0.26611829    -0.56900
C119        C  0.87358708  0.23345840  0.31531153     0.75700
O120        O  0.88505435  0.19090782  0.29213894    -0.58000
C121        C  0.87649047  0.23843880  0.25118601     0.75700
C122        C  0.92793503  0.22744441  0.28218857     0.78100
Cd123      Cd  0.89012185  0.22215419  0.28289011     1.37500
O124        O  0.87455491  0.24363830  0.30194328    -0.56900
O125        O  0.91740444  0.24024421  0.28493665    -0.55700
C126        C  0.87494962  0.18702414  0.27926538     0.78100
O127        O  0.92086849  0.21220882  0.28075108    -0.58100
O128        O  0.88165528  0.21876469  0.31402882    -0.56500
O129        O  0.89042961  0.22900650  0.25131202    -0.56500
O130        O  0.87310274  0.19895833  0.26756956    -0.55700
O131        O  0.73636896  0.88017677  0.26223967    -0.56900
C132        C  0.74699061  0.88386660  0.31370488     0.75700
O133        O  0.77613128  0.87647208  0.26794532    -0.58000
C134        C  0.73943733  0.88789930  0.24757094     0.75700
C135        C  0.74994966  0.93681579  0.28036201     0.78100
Cd136      Cd  0.75629726  0.89911596  0.27993292     1.37500
O137        O  0.73636456  0.88337071  0.30065345    -0.56900
O138        O  0.73788348  0.92564641  0.28403370    -0.55700
C139        C  0.79035569  0.88224779  0.27477957     0.78100
O140        O  0.76526308  0.93049801  0.27736165    -0.58100
O141        O  0.76121833  0.89253446  0.31132866    -0.56500
O142        O  0.74934499  0.90154655  0.24819481    -0.56500
O143        O  0.78914301  0.89663355  0.28351060    -0.55700
O144        O  0.75584063  0.11790504  0.27561334    -0.56900
C145        C  0.70522508  0.12612482  0.26740372     0.75700
O146        O  0.74752465  0.12679547  0.23159804    -0.58000
C147        C  0.76968345  0.11229266  0.26781264     0.75700
C148        C  0.73347073  0.06819828  0.25814979     0.78100
Cd149      Cd  0.73491919  0.10626739  0.25317908     1.37500
O150        O  0.72120017  0.12987893  0.27119317    -0.56900
O151        O  0.73111524  0.07901866  0.27082417    -0.55700
C152        C  0.73658160  0.12418392  0.21912884     0.78100
O153        O  0.73519194  0.07505210  0.24287424    -0.58100
O154        O  0.70285341  0.11220746  0.25818678    -0.56500
O155        O  0.76720277  0.10329756  0.25381173    -0.56500
O156        O  0.72515668  0.11204963  0.22181513    -0.55700
O157        O  0.23192482  0.27212833  0.90826999    -0.56900
C158        C  0.22656402  0.22220441  0.91895879     0.75700
O159        O  0.19904016  0.25397424  0.95756106    -0.58000
C160        C  0.22313663  0.28649334  0.90768088     0.75700
C161        C  0.17677641  0.25362391  0.90783587     0.78100
Cd162      Cd  0.21007019  0.25592242  0.92667086     1.37500
O163        O  0.23305469  0.23673929  0.91328087    -0.56900
O164        O  0.17949458  0.26600984  0.91893336    -0.55700
C165        C  0.21375449  0.25781497  0.96477914     0.78100
O166        O  0.18882721  0.24199879  0.90654842    -0.58100
O167        O  0.21273166  0.22343743  0.92844015    -0.56500
O168        O  0.20915965  0.28705543  0.91697831    -0.56500
O169        O  0.22619455  0.26202557  0.95429512    -0.55700
O170        O  0.23192517  0.23365343  0.14481913    -0.56900
C171        C  0.28105759  0.22556945  0.14592078     0.75700
O172        O  0.23891446  0.18814501  0.14106961    -0.58000
C173        C  0.21744361  0.22578187  0.14111913     0.75700
C174        C  0.24719157  0.22637671  0.09028351     0.78100
Cd175      Cd  0.25045578  0.21433727  0.12637929     1.37500
O176        O  0.26584473  0.23211043  0.14892188    -0.56900
O177        O  0.25200863  0.23668088  0.10265050    -0.55700
C178        C  0.25199424  0.17800677  0.13831253     0.78100
O179        O  0.24541484  0.21012627  0.09444262    -0.58100
O180        O  0.28224096  0.21512970  0.13278239    -0.56500
O181        O  0.21843525  0.21295161  0.13026870    -0.56500
O182        O  0.26418274  0.18410616  0.12841551    -0.55700
O183        O  0.87017113  0.27284697  0.76358212    -0.56900
C184        C  0.88278469  0.22089612  0.76819700     0.75700
O185        O  0.92037907  0.25422629  0.79407200    -0.58000
C186        C  0.87181759  0.28712490  0.77243180     0.75700
C187        C  0.87116559  0.25300537  0.81574312     0.78100
Cd188      Cd  0.88999832  0.25537812  0.78284717     1.37500
O189        O  0.87838336  0.23491774  0.75987255    -0.56900
O190        O  0.88626183  0.26048869  0.81501732    -0.55700
C191        C  0.92790690  0.25768577  0.77945832     0.78100
O192        O  0.86562808  0.24582743  0.80159080    -0.58100
O193        O  0.89132906  0.22312054  0.78251199    -0.56500
O194        O  0.88321540  0.28701327  0.78478019    -0.56500
O195        O  0.91770378  0.26101787  0.76647088    -0.55700
O196        O  0.11357930  0.24464346  0.78451634    -0.56900
C197        C  0.11403591  0.23543692  0.73412892     0.75700
O198        O  0.10031829  0.19168268  0.76024276    -0.58000
C199        C  0.10555838  0.24085602  0.79882914     0.75700
C200        C  0.05836893  0.23163096  0.76355713     0.78100
Cd201      Cd  0.09590611  0.22433937  0.76582585     1.37500
O202        O  0.11389318  0.24488553  0.74804914    -0.56900
O203        O  0.07010466  0.24298085  0.75948677    -0.55700
C204        C  0.11241636  0.19025030  0.77189801     0.78100
O205        O  0.06403438  0.21632372  0.76783001    -0.58100
O206        O  0.10479385  0.22132733  0.73459580    -0.56500
O207        O  0.09241777  0.23035840  0.79743682    -0.56500
O208        O  0.11587101  0.20408039  0.78078653    -0.55700
O209        O  0.74981459  0.27584146  0.14712872    -0.56900
C210        C  0.74844245  0.22617696  0.13758723     0.75700
O211        O  0.77844519  0.25399125  0.09614484    -0.58000
C212        C  0.75744106  0.29053429  0.14382544     0.75700
C213        C  0.80140508  0.25343369  0.14467366     0.78100
Cd214      Cd  0.76767613  0.25763628  0.12676312     1.37500
O215        O  0.74415494  0.24154852  0.14310048    -0.56900
O216        O  0.79876777  0.26635915  0.13422684    -0.55700
C217        C  0.76376143  0.25730092  0.08864141     0.78100
O218        O  0.78911876  0.24199186  0.14555104    -0.58100
O219        O  0.76090418  0.22558638  0.12631535    -0.56500
O220        O  0.76875757  0.29025901  0.13141934    -0.56500
O221        O  0.75113227  0.26169967  0.09882306    -0.55700
O222        O  0.76235660  0.24611760  0.90247877    -0.56900
C223        C  0.71411241  0.23270315  0.90132809     0.75700
O224        O  0.76163184  0.20051499  0.90501196    -0.58000
C225        C  0.77770883  0.24084272  0.90702907     0.75700
C226        C  0.74545182  0.23200010  0.95806732     0.78100
Cd227      Cd  0.74611378  0.22419169  0.92056705     1.37500
O228        O  0.72833462  0.24143788  0.89891452    -0.56900
O229        O  0.74117190  0.24349976  0.94657226    -0.55700
C230        C  0.75006179  0.18849513  0.90711028     0.78100
O231        O  0.74945423  0.21677182  0.95213542    -0.58100
O232        O  0.71455408  0.22113891  0.91352298    -0.56500
O233        O  0.77821109  0.22870211  0.91868208    -0.56500
O234        O  0.73687684  0.19254361  0.91670417    -0.55700
O235        O  0.76537252  0.87971364  0.79267011    -0.56900
C236        C  0.71535439  0.87880607  0.79829058     0.75700
O237        O  0.75604209  0.87907740  0.83851963    -0.58000
C238        C  0.77970313  0.88385284  0.80057712     0.75700
C239        C  0.74789122  0.93310417  0.80402937     0.78100
Cd240      Cd  0.74596464  0.89611285  0.81305612     1.37500
O241        O  0.73095178  0.87322130  0.79531833    -0.56900
O242        O  0.74422187  0.92115282  0.79278126    -0.55700
C243        C  0.74266252  0.88160605  0.84830451     0.78100
O244        O  0.74988737  0.92792963  0.81990944    -0.58100
O245        O  0.71415657  0.89302474  0.80721719    -0.56500
O246        O  0.77826989  0.89409947  0.81384771    -0.56500
O247        O  0.73122210  0.89247563  0.84247265    -0.55700
O248        O  0.74749927  0.11363637  0.75031322    -0.56900
C249        C  0.75890541  0.11058699  0.80299582     0.75700
O250        O  0.78070978  0.06826966  0.77092459    -0.58000
C251        C  0.75598167  0.11212877  0.73586449     0.75700
C252        C  0.80335664  0.11800067  0.76663942     0.78100
Cd253      Cd  0.77037101  0.09909231  0.76852484     1.37500
O254        O  0.75062563  0.11518876  0.78904780    -0.56900
O255        O  0.78995338  0.12384627  0.77486574    -0.55700
C256        C  0.76533898  0.06135507  0.77025124     0.78100
O257        O  0.80194836  0.10265173  0.75975151    -0.58100
O258        O  0.77187307  0.10007343  0.80080907    -0.56500
O259        O  0.77044114  0.10361754  0.73656286    -0.56500
O260        O  0.75252562  0.07202741  0.76822987    -0.55700
O261        O  0.11460967  0.74265843  0.25445131    -0.56900
C262        C  0.11877799  0.75149115  0.30565751     0.75700
O263        O  0.10685764  0.79538106  0.28504176    -0.58000
C264        C  0.10999790  0.75056971  0.24027659     0.75700
C265        C  0.06220700  0.76171329  0.27506000     0.78100
Cd266      Cd  0.10053298  0.76471478  0.27451290     1.37500
O267        O  0.12012923  0.74382561  0.29074304    -0.56900
O268        O  0.07212872  0.74824556  0.27700575    -0.55700
C269        C  0.11892090  0.79831120  0.27371125     0.78100
O270        O  0.07007419  0.77654527  0.27361856    -0.58100
O271        O  0.10777231  0.76417860  0.30637319    -0.56500
O272        O  0.10050790  0.76434411  0.24216975    -0.56500
O273        O  0.12118592  0.78639346  0.26209936    -0.55700
O274        O  0.87415854  0.73410405  0.27362728    -0.56900
C275        C  0.88061292  0.78746221  0.26670164     0.75700
O276        O  0.92229664  0.75450768  0.24267635    -0.58000
C277        C  0.87585785  0.71992776  0.26464166     0.75700
C278        C  0.87163226  0.75533656  0.22028409     0.78100
Cd279      Cd  0.89116257  0.75319013  0.25303530     1.37500
O280        O  0.87748678  0.77319186  0.27517389    -0.56900
O281        O  0.88723024  0.74893828  0.22032365    -0.55700
C282        C  0.92927334  0.75205538  0.25781006     0.78100
O283        O  0.86566676  0.76067996  0.23500650    -0.58100
O284        O  0.88993226  0.78584714  0.25279210    -0.56500
O285        O  0.88560734  0.72103728  0.25102745    -0.56500
O286        O  0.91856340  0.75002456  0.27059415    -0.55700
O287        O  0.75436172  0.75298688  0.14354751    -0.56900
C288        C  0.70564139  0.76387179  0.15418873     0.75700
O289        O  0.74625511  0.80166644  0.14375326    -0.58000
C290        C  0.76827571  0.76199584  0.14033468     0.75700
C291        C  0.72995169  0.76529085  0.09335680     0.78100
Cd292      Cd  0.73362482  0.77472617  0.13039892     1.37500
O293        O  0.72180864  0.76043063  0.15737118    -0.56900
O294        O  0.72769239  0.75394337  0.10557923    -0.55700
C295        C  0.73223951  0.81088431  0.14287393     0.78100
O296        O  0.73332548  0.78102764  0.09836954    -0.58100
O297        O  0.70243882  0.77096328  0.13929609    -0.56500
O298        O  0.76606688  0.77622120  0.13155220    -0.56500
O299        O  0.71950437  0.80416133  0.13415213    -0.55700
O300        O  0.73768617  0.76047989  0.91398732    -0.56900
C301        C  0.74978642  0.70917414  0.90800386     0.75700
O302        O  0.79314135  0.73395204  0.92508998    -0.58000
C303        C  0.74462500  0.77471573  0.91991741     0.75700
C304        C  0.75253780  0.73853433  0.96461977     0.78100
Cd305      Cd  0.76041503  0.74053139  0.92721746     1.37500
O306        O  0.74341548  0.72439987  0.90461722    -0.56900
O307        O  0.74125190  0.73402481  0.95297275    -0.55700
C308        C  0.79539420  0.74361111  0.91146042     0.78100
O309        O  0.76778112  0.74286494  0.95888485    -0.58100
O310        O  0.76006624  0.70825841  0.92130030    -0.56500
O311        O  0.75832245  0.77289774  0.92951598    -0.56500
O312        O  0.78186410  0.75185674  0.90593321    -0.55700
O313        O  0.26128172  0.24345684  0.64365533    -0.56900
C314        C  0.20795269  0.25492447  0.64242748     0.75700
O315        O  0.24873799  0.28227904  0.65354513    -0.58000
C316        C  0.27553928  0.25197914  0.64049892     0.75700
C317        C  0.24295022  0.25858639  0.59028398     0.78100
Cd318      Cd  0.24189499  0.26473374  0.62798128     1.37500
O319        O  0.22114722  0.24448743  0.64352814    -0.56900
O320        O  0.24095023  0.24605127  0.60135666    -0.55700
C321        C  0.24514691  0.29743463  0.64722292     0.78100
O322        O  0.24389890  0.27416513  0.59670674    -0.58100
O323        O  0.21028958  0.26886871  0.63330692    -0.56500
O324        O  0.27413787  0.26526776  0.63026247    -0.56500
O325        O  0.23982723  0.29785284  0.63120503    -0.55700
O326        O  0.24209932  0.25903253  0.40701143    -0.56900
C327        C  0.25683617  0.20790580  0.40411219     0.75700
O328        O  0.29843486  0.23933132  0.41844633    -0.58000
C329        C  0.24809787  0.27399520  0.41210870     0.75700
C330        C  0.26157111  0.23900645  0.45930093     0.78100
Cd331      Cd  0.26567203  0.24131840  0.42131424     1.37500
O332        O  0.24625452  0.22101037  0.40383885    -0.56900
O333        O  0.24888406  0.23573499  0.44874546    -0.55700
C334        C  0.29910319  0.24803928  0.40405078     0.78100
O335        O  0.27633019  0.24276667  0.45216767    -0.58100
O336        O  0.27092611  0.21012163  0.41300708    -0.56500
O337        O  0.26132033  0.27354564  0.42250318    -0.56500
O338        O  0.28451691  0.25406023  0.39828781    -0.55700
O339        O  0.26502264  0.61543005  0.77079695    -0.56900
C340        C  0.21452014  0.61347019  0.76359501     0.75700
O341        O  0.23112036  0.60313244  0.72157113    -0.58000
C342        C  0.27941034  0.61235706  0.76257200     0.75700
C343        C  0.24859787  0.56010042  0.75867953     0.78100
Cd344      Cd  0.24630496  0.59766405  0.75051269     1.37500
O345        O  0.22952332  0.61772902  0.77002664    -0.56900
O346        O  0.24545331  0.57179154  0.77032322    -0.55700
C347        C  0.24222153  0.61472313  0.71642392     0.78100
O348        O  0.25024538  0.56573492  0.74288670    -0.58100
O349        O  0.21434840  0.60085179  0.75247353    -0.56500
O350        O  0.27837145  0.60180704  0.74945549    -0.56500
O351        O  0.25594411  0.61658316  0.72592866    -0.55700
O352        O  0.25161158  0.37759592  0.76155313    -0.56900
C353        C  0.25748929  0.37350246  0.81212608     0.75700
O354        O  0.29593712  0.37073411  0.77070642    -0.58000
C355        C  0.26031092  0.38107699  0.74754073     0.75700
C356        C  0.26917305  0.42917789  0.78109205     0.78100
Cd357      Cd  0.27347437  0.39102960  0.78193811     1.37500
O358        O  0.25339155  0.36962234  0.79627513    -0.56900
O359        O  0.25625224  0.41874403  0.78391227    -0.55700
C360        C  0.30718026  0.37282904  0.78298993     0.78100
O361        O  0.28429566  0.42197618  0.77960232    -0.58100
O362        O  0.26828653  0.38631745  0.81403852    -0.56500
O363        O  0.27442784  0.39004918  0.74959385    -0.56500
O364        O  0.30348000  0.38454767  0.79449930    -0.55700
O365        O  0.61117976  0.27125174  0.27869111    -0.56900
C366        C  0.61330230  0.22058102  0.29084915     0.75700
O367        O  0.59854588  0.24774137  0.33398370    -0.58000
C368        C  0.60743335  0.28624677  0.28543153     0.75700
C369        C  0.55803509  0.25151572  0.29588390     0.78100
Cd370      Cd  0.59594154  0.25325660  0.30148623     1.37500
O371        O  0.60473876  0.22177987  0.30526081    -0.56900
O372        O  0.56900066  0.24511917  0.28491224    -0.55700
C373        C  0.61285710  0.25658181  0.33548861     0.78100
O374        O  0.56458790  0.25842888  0.30976057    -0.58100
O375        O  0.61302489  0.23425211  0.28098749    -0.56500
O376        O  0.59715540  0.28592787  0.29872852    -0.56500
O377        O  0.61853378  0.26409906  0.32160559    -0.55700
O378        O  0.37557018  0.25151622  0.28956428    -0.56900
C379        C  0.37082606  0.25170902  0.24097468     0.75700
O380        O  0.38063950  0.29742754  0.25082389    -0.58000
C381        C  0.38065099  0.26020198  0.30310324     0.75700
C382        C  0.42795311  0.26529850  0.26745377     0.78100
Cd383      Cd  0.39017927  0.27073787  0.26785668     1.37500
O384        O  0.36688081  0.25054289  0.25725205    -0.56900
O385        O  0.41697313  0.25260671  0.26883813    -0.55700
C386        C  0.37326798  0.30502811  0.26385458     0.78100
O387        O  0.42139072  0.28064060  0.26515046    -0.58100
O388        O  0.38472340  0.26054375  0.23734959    -0.56500
O389        O  0.39082350  0.27334607  0.30021909    -0.56500
O390        O  0.37521805  0.29751632  0.27873895    -0.55700
O391        O  0.72826783  0.25060368  0.64978294    -0.56900
C392        C  0.72509612  0.20162500  0.64340239     0.75700
O393        O  0.68202337  0.21926322  0.63236787    -0.58000
C394        C  0.72441835  0.26573367  0.64338775     0.75700
C395        C  0.72013895  0.23531628  0.59014800     0.78100
Cd396      Cd  0.71152113  0.23336910  0.62742235     1.37500
O397        O  0.73340848  0.21629978  0.64443286    -0.56900
O398        O  0.73174961  0.23238421  0.60193032    -0.55700
C399        C  0.67602900  0.23195224  0.64163547     0.78100
O400        O  0.70428100  0.23663179  0.59558342    -0.58100
O401        O  0.71122616  0.20159011  0.63391951    -0.56500
O402        O  0.71511042  0.26569913  0.62935064    -0.56500
O403        O  0.68575622  0.24565046  0.64272892    -0.55700
O404        O  0.76289161  0.25314448  0.40095516    -0.56900
C405        C  0.71549728  0.25844745  0.41504113     0.75700
O406        O  0.74739347  0.27989916  0.45666702    -0.58000
C407        C  0.77889555  0.25483317  0.40596865     0.75700
C408        C  0.75277686  0.30609137  0.40918924     0.78100
Cd409      Cd  0.75013013  0.27102357  0.42513258     1.37500
O410        O  0.72927118  0.24947843  0.41135649    -0.56900
O411        O  0.73871937  0.29687526  0.40917897    -0.55700
C412        C  0.75019546  0.26450632  0.46294115     0.78100
O413        O  0.76563329  0.29978333  0.41802652    -0.58100
O414        O  0.71795715  0.27243269  0.42410463    -0.56500
O415        O  0.78134005  0.26317206  0.42038299    -0.56500
O416        O  0.75385023  0.25250456  0.45176868    -0.55700
O417        O  0.23282313  0.73807560  0.65013182    -0.56900
C418        C  0.24262880  0.78881287  0.64927672     0.75700
O419        O  0.27399557  0.74541006  0.65417175    -0.58000
C420        C  0.23802457  0.72323575  0.64407458     0.75700
C421        C  0.24780729  0.75664569  0.59400362     0.78100
Cd422      Cd  0.25337080  0.75637418  0.63205071     1.37500
O423        O  0.23259066  0.77526068  0.64861741    -0.56900
O424        O  0.23530630  0.75950422  0.60485105    -0.55700
C425        C  0.28780566  0.75301640  0.64839295     0.78100
O426        O  0.26301353  0.75431720  0.60082777    -0.58100
O427        O  0.25687673  0.78787863  0.64045419    -0.56500
O428        O  0.24944860  0.72394083  0.63174182    -0.56500
O429        O  0.28599391  0.76199292  0.63425347    -0.55700
O430        O  0.25731101  0.74217986  0.41301993    -0.56900
C431        C  0.20794704  0.73397804  0.40416376     0.75700
O432        O  0.22022993  0.69274977  0.42014642    -0.58000
C433        C  0.27099808  0.73383646  0.41827723     0.75700
C434        C  0.23326369  0.72998496  0.46368791     0.78100
Cd435      Cd  0.23594264  0.72119653  0.42655185     1.37500
O436        O  0.22413986  0.73619276  0.40006368    -0.56900
O437        O  0.23197156  0.74170832  0.45168769    -0.55700
C438        C  0.23335447  0.68545436  0.41264599     0.78100
O439        O  0.23491717  0.71408042  0.45836447    -0.58100
O440        O  0.20497953  0.72760643  0.41943182    -0.56500
O441        O  0.26823886  0.71998456  0.42746287    -0.56500
O442        O  0.24791497  0.69385186  0.41359734    -0.55700
O443        O  0.61037260  0.23563650  0.76290748    -0.56900
C444        C  0.61608808  0.24783282  0.81137033     0.75700
O445        O  0.60082715  0.29065524  0.78953115    -0.58000
C446        C  0.60533648  0.24183098  0.74808071     0.75700
C447        C  0.55828906  0.25316270  0.78238798     0.78100
Cd448      Cd  0.59612718  0.25902791  0.78077712     1.37500
O449        O  0.61682657  0.23953155  0.79676032    -0.56900
O450        O  0.56928060  0.24192389  0.78837020    -0.55700
C451        C  0.61246922  0.29361395  0.77775556     0.78100
O452        O  0.56486559  0.26756526  0.77665054    -0.58100
O453        O  0.60493547  0.26041771  0.81215765    -0.56500
O454        O  0.59545621  0.25545517  0.74858669    -0.56500
O455        O  0.61555772  0.28103968  0.76705758    -0.55700
O456        O  0.37581731  0.25235993  0.78379805    -0.56900
C457        C  0.37185927  0.20023709  0.77512985     0.75700
O458        O  0.38536035  0.22501134  0.73083626    -0.58000
C459        C  0.38240228  0.26632723  0.77690831     0.75700
C460        C  0.42749546  0.22898880  0.76814538     0.78100
Cd461      Cd  0.38985953  0.23170067  0.76285721     1.37500
O462        O  0.37158916  0.21456958  0.78402189    -0.56900
O463        O  0.41662392  0.22745191  0.78084204    -0.55700
C464        C  0.37232998  0.23555922  0.72922567     0.78100
O465        O  0.42075935  0.23086863  0.75283815    -0.58100
O466        O  0.38113172  0.20046658  0.76116094    -0.56500
O467        O  0.39320985  0.26398304  0.76425385    -0.56500
O468        O  0.36818872  0.24448685  0.74281298    -0.55700
O469        O  0.74709194  0.61662804  0.76000006    -0.56900
C470        C  0.73728637  0.61983826  0.80976943     0.75700
O471        O  0.69505368  0.60890699  0.79121481    -0.58000
C472        C  0.73970215  0.61284336  0.74530418     0.75700
C473        C  0.73029899  0.56358290  0.77760545     0.78100
Cd474      Cd  0.72458842  0.60165531  0.77838384     1.37500
O475        O  0.74169832  0.62498290  0.79435454    -0.56900
O476        O  0.74270495  0.57449378  0.78089924    -0.55700
C477        C  0.69019695  0.61852488  0.77830494     0.78100
O478        O  0.71498416  0.57030075  0.77567444    -0.58100
O479        O  0.72826862  0.60560833  0.81045664    -0.56500
O480        O  0.72592971  0.60316218  0.74605941    -0.56500
O481        O  0.70032938  0.61853684  0.76494941    -0.55700
O482        O  0.72757638  0.37459596  0.77055736    -0.56900
C483        C  0.77556792  0.37810670  0.76256365     0.75700
O484        O  0.75664999  0.37782856  0.72359400    -0.58000
C485        C  0.71216030  0.37845241  0.76502215     0.75700
C486        C  0.74438496  0.43177251  0.75398818     0.78100
Cd487      Cd  0.74354940  0.39354287  0.74916381     1.37500
O488        O  0.76050316  0.37385963  0.76878626    -0.56900
O489        O  0.74397675  0.42099746  0.76689344    -0.55700
C490        C  0.74228585  0.37549145  0.71520883     0.78100
O491        O  0.74468074  0.42480008  0.73868996    -0.58100
O492        O  0.77577520  0.39072646  0.75138093    -0.56500
O493        O  0.71134650  0.39024941  0.75303241    -0.56500
O494        O  0.72884966  0.38332398  0.72152388    -0.55700
O495        O  0.61818529  0.73960274  0.77593019    -0.56900
C496        C  0.62181414  0.78796139  0.77118892     0.75700
O497        O  0.61355062  0.74550038  0.72741957    -0.58000
C498        C  0.61327151  0.72515323  0.76870936     0.75700
C499        C  0.56452023  0.76115254  0.75960348     0.78100
Cd500      Cd  0.60248089  0.75917077  0.75483456     1.37500
O501        O  0.62725094  0.77203611  0.77161140    -0.56900
O502        O  0.57505042  0.75922188  0.77257433    -0.55700
C503        C  0.61741843  0.75976650  0.71939512     0.78100
O504        O  0.57170212  0.76271325  0.74451488    -0.58100
O505        O  0.60675573  0.79044886  0.76406698    -0.56500
O506        O  0.60263133  0.72656168  0.75575711    -0.56500
O507        O  0.61307207  0.77398266  0.72724168    -0.55700
O508        O  0.37727292  0.75107439  0.75425425    -0.56900
C509        C  0.37830256  0.73964202  0.80430852     0.75700
O510        O  0.37821839  0.70745447  0.75764331    -0.58000
C511        C  0.38200175  0.74495947  0.73927673     0.75700
C512        C  0.43293473  0.74024474  0.77151213     0.78100
Cd513      Cd  0.39583993  0.73068891  0.77163792     1.37500
O514        O  0.37503765  0.74805145  0.79008146    -0.56900
O515        O  0.42083054  0.75168543  0.77367485    -0.55700
C516        C  0.38143781  0.69523987  0.76868262     0.78100
O517        O  0.42780079  0.72425121  0.76982100    -0.58100
O518        O  0.39050152  0.72813668  0.80348637    -0.56500
O519        O  0.39404950  0.73317663  0.73945443    -0.56500
O520        O  0.39275106  0.69884670  0.78063294    -0.55700
O521        O  0.74021627  0.61952035  0.28676688    -0.56900
C522        C  0.79025124  0.62104363  0.29170266     0.75700
O523        O  0.77100363  0.61005367  0.33673350    -0.58000
C524        C  0.72591391  0.61347920  0.29335556     0.75700
C525        C  0.76083786  0.56465012  0.29930290     0.78100
Cd526      Cd  0.75993547  0.60254486  0.30614348     1.37500
O527        O  0.77530651  0.62133818  0.28393969    -0.56900
O528        O  0.76258853  0.57612437  0.28714391    -0.55700
C529        C  0.75791803  0.62000124  0.34040914     0.78100
O530        O  0.75955676  0.57073485  0.31493424    -0.58100
O531        O  0.79127425  0.61133193  0.30540749    -0.56500
O532        O  0.72751128  0.60132865  0.30492452    -0.56500
O533        O  0.74572700  0.62062306  0.32891646    -0.55700
O534        O  0.74868079  0.38020435  0.29037835    -0.56900
C535        C  0.73946434  0.38076215  0.23955867     0.75700
O536        O  0.70269617  0.38367382  0.28649028    -0.58000
C537        C  0.74222412  0.38536003  0.30508494     0.75700
C538        C  0.73768819  0.43545697  0.27174407     0.78100
Cd539      Cd  0.72812023  0.39811990  0.27182587     1.37500
O540        O  0.74582386  0.37645592  0.25454547    -0.56900
O541        O  0.74915961  0.42321912  0.27125483    -0.55700
C542        C  0.69188994  0.38493436  0.27371739     0.78100
O543        O  0.72162738  0.43037312  0.27171941    -0.58100
O544        O  0.72836815  0.39337847  0.23955995    -0.56500
O545        O  0.72971355  0.39658360  0.30416112    -0.56500
O546        O  0.69742304  0.39338955  0.26028053    -0.55700
O547        O  0.73646427  0.75212065  0.64797697    -0.56900
C548        C  0.78783387  0.74485941  0.65235646     0.75700
O549        O  0.76801202  0.70102931  0.63582937    -0.58000
C550        C  0.72245150  0.74434821  0.64258227     0.75700
C551        C  0.75775933  0.73942041  0.59466103     0.78100
Cd552      Cd  0.75730268  0.73224243  0.63233688     1.37500
O553        O  0.77289167  0.75257450  0.65324899    -0.56900
O554        O  0.76035414  0.75162536  0.60596942    -0.55700
C555        C  0.75590484  0.69679074  0.64672256     0.78100
O556        O  0.75618222  0.72385004  0.60085343    -0.58100
O557        O  0.78883133  0.73218891  0.64134003    -0.56500
O558        O  0.72471570  0.73153513  0.63191438    -0.56500
O559        O  0.74442181  0.70857781  0.65000267    -0.55700
O560        O  0.75078971  0.74118315  0.41106229    -0.56900
C561        C  0.74023023  0.79041639  0.40753133     0.75700
O562        O  0.69788452  0.77135390  0.42354407    -0.58000
C563        C  0.74482333  0.72640998  0.41666112     0.75700
C564        C  0.73634630  0.76129141  0.46449010     0.78100
Cd565      Cd  0.72880920  0.75964234  0.42716091     1.37500
O566        O  0.73984659  0.77494840  0.40086225    -0.56900
O567        O  0.74846206  0.76261101  0.45293062    -0.55700
C568        C  0.69248300  0.75805748  0.41471992     0.78100
O569        O  0.72063095  0.75973348  0.45861317    -0.58100
O570        O  0.73653429  0.79145323  0.42387946    -0.56500
O571        O  0.73227177  0.72731307  0.42780795    -0.56500
O572        O  0.70343732  0.74544497  0.41308908    -0.55700
O573        O  0.24179480  0.62134398  0.25854257    -0.56900
C574        C  0.24301173  0.60898519  0.30728834     0.75700
O575        O  0.26749136  0.56648149  0.27439881    -0.58000
C576        C  0.24905015  0.61869482  0.24361272     0.75700
C577        C  0.29460013  0.61273852  0.27799647     0.78100
Cd578      Cd  0.25914434  0.59829779  0.27443612     1.37500
O579        O  0.23779188  0.61529595  0.29254675    -0.56900
O580        O  0.28985172  0.60440755  0.26419289    -0.55700
C581        C  0.25194134  0.56051462  0.27188525     0.78100
O582        O  0.28344908  0.61297652  0.29052074    -0.58100
O583        O  0.25499211  0.59718952  0.30655035    -0.56500
O584        O  0.25974035  0.60573720  0.24278874    -0.56500
O585        O  0.23994494  0.57210560  0.26981977    -0.55700
O586        O  0.25293618  0.37454844  0.27043360    -0.56900
C587        C  0.20201044  0.37228810  0.28195355     0.75700
O588        O  0.22835686  0.38665657  0.32512804    -0.58000
C589        C  0.26764148  0.38067835  0.27602307     0.75700
C590        C  0.23340313  0.42827582  0.28764836     0.78100
Cd591      Cd  0.23439044  0.39006317  0.29261771     1.37500
O592        O  0.21610928  0.37122340  0.27284700    -0.56900
O593        O  0.22818327  0.41775029  0.27555798    -0.55700
C594        C  0.23762548  0.37269217  0.32682105     0.78100
O595        O  0.23811734  0.42101064  0.30205130    -0.58100
O596        O  0.20257160  0.38285025  0.29504299    -0.56500
O597        O  0.26674682  0.39175732  0.28865455    -0.56500
O598        O  0.24592929  0.36772787  0.31311770    -0.55700
O599        O  0.61611139  0.74696100  0.30303949    -0.56900
C600        C  0.61934527  0.73855912  0.25283142     0.75700
O601        O  0.60940891  0.69290581  0.27383279    -0.58000
C602        C  0.61019934  0.74057188  0.31747271     0.75700
C603        C  0.56479558  0.72684947  0.28244889     0.78100
Cd604      Cd  0.60280561  0.72379712  0.28389969     1.37500
O605        O  0.62235175  0.74476410  0.26817412    -0.56900
O606        O  0.57498998  0.73977914  0.27894260    -0.55700
C607        C  0.62090627  0.68991383  0.28573387     0.78100
O608        O  0.57231800  0.71218604  0.28592258    -0.58100
O609        O  0.60803418  0.72609456  0.25188215    -0.56500
O610        O  0.60045621  0.72687300  0.31607743    -0.56500
O611        O  0.62350151  0.70228283  0.29681227    -0.55700
O612        O  0.38077783  0.72326288  0.28923482    -0.56900
C613        C  0.37692549  0.77149778  0.30013310     0.75700
O614        O  0.38711262  0.75491730  0.34080412    -0.58000
C615        C  0.38316079  0.70828813  0.29665260     0.75700
C616        C  0.43373333  0.74097114  0.30663869     0.78100
Cd617      Cd  0.39582870  0.74069081  0.31251754     1.37500
O618        O  0.37211284  0.75584713  0.29606533    -0.56900
O619        O  0.42263445  0.74386823  0.29435302    -0.55700
C620        C  0.37971596  0.74124132  0.34724033     0.78100
O621        O  0.42723856  0.73852822  0.32193689    -0.58100
O622        O  0.39142929  0.77282242  0.30860573    -0.56500
O623        O  0.39219277  0.70836065  0.31084817    -0.56500
O624        O  0.38162462  0.72701560  0.33846444    -0.55700
C625        C  0.51687349  0.71662562  0.29349265    -0.01100
C626        C  0.50837459  0.73287555  0.28953606     0.07500
C627        C  0.51821135  0.74671761  0.28178039    -0.07100
C628        C  0.53640769  0.74480563  0.27844451     0.04900
C629        C  0.54519393  0.72885547  0.28334074    -0.14300
C630        C  0.53510379  0.71477388  0.29045439    -0.07600
C631        C  0.48936086  0.73580570  0.29384792     0.05900
C632        C  0.48387801  0.73459387  0.31160660    -0.08700
C633        C  0.46598421  0.73661172  0.31627374     0.00900
C634        C  0.45312471  0.74001746  0.30292982     0.00700
C635        C  0.45883585  0.74178626  0.28521131    -0.12300
C636        C  0.47671697  0.73971862  0.28060470     0.01200
C637        C  0.46139348  0.73494711  0.33481861     0.40500
C638        C  0.48165105  0.74109458  0.26212126     0.37100
C639        C  0.50714337  0.70161601  0.30058027     0.36900
C640        C  0.54555474  0.75943449  0.26993936     0.37600
N641        N  0.45784850  0.73359290  0.34971481    -0.43200
N642        N  0.48561405  0.74225752  0.24731773    -0.43600
N643        N  0.55282852  0.77113740  0.26302898    -0.41000
N644        N  0.49934569  0.68958031  0.30623628    -0.42400
H645        H  0.54150961  0.70234597  0.29404366     0.13800
H646        H  0.51167326  0.75917778  0.27854492     0.10200
H647        H  0.49365761  0.73190977  0.32186903     0.11300
H648        H  0.44925728  0.74444887  0.27477018     0.17100
C649        C  0.32999735  0.64279108  0.29713382    -0.01100
C650        C  0.34036696  0.64685272  0.28211334     0.07500
C651        C  0.33687434  0.63821897  0.26598867    -0.07100
C652        C  0.32259656  0.62627581  0.26440717     0.04900
C653        C  0.31168119  0.62265413  0.27933861    -0.14300
C654        C  0.31598917  0.63062119  0.29571171    -0.07600
C655        C  0.35316361  0.66183864  0.28260142     0.05900
C656        C  0.36937270  0.65979076  0.29154857    -0.08700
C657        C  0.38016935  0.67459686  0.29517364     0.00900
C658        C  0.37460855  0.69181922  0.28988420     0.00700
C659        C  0.35903812  0.69352674  0.27969648    -0.12300
C660        C  0.34825926  0.67874992  0.27616178     0.01200
C661        C  0.39667208  0.67173058  0.30456460     0.40500
C662        C  0.33150454  0.68145811  0.26716264     0.37100
C663        C  0.33253369  0.65209984  0.31375320     0.36900
C664        C  0.31882841  0.61907021  0.24701777     0.37600
N665        N  0.40992099  0.66939185  0.31204006    -0.43200
N666        N  0.31802481  0.68355055  0.26003951    -0.43600
N667        N  0.31579643  0.61344179  0.23302037    -0.41000
N668        N  0.33448300  0.65971511  0.32698385    -0.42400
H669        H  0.30779012  0.62812325  0.30729140     0.13800
H670        H  0.34475206  0.64155759  0.25439042     0.10200
H671        H  0.37320525  0.64671936  0.29634944     0.11300
H672        H  0.35459661  0.70661212  0.27549472     0.17100
C673        C  0.23167293  0.47331037  0.26458297    -0.01100
C674        C  0.23903010  0.48466485  0.27754947     0.07500
C675        C  0.24363255  0.47772347  0.29417107    -0.07100
C676        C  0.24144708  0.45961313  0.29796712     0.04900
C677        C  0.23451883  0.44791984  0.28484779    -0.14300
C678        C  0.22949546  0.45510160  0.26827888    -0.07600
C679        C  0.24229358  0.50385911  0.27420022     0.05900
C680        C  0.22788588  0.51563345  0.27407780    -0.08700
C681        C  0.23059336  0.53408203  0.27293985     0.00900
C682        C  0.24810927  0.54104407  0.27179215     0.00700
C683        C  0.26247073  0.52905919  0.27140779    -0.12300
C684        C  0.25969345  0.51064521  0.27260375     0.01200
C685        C  0.21514171  0.54542801  0.27381134     0.40500
C686        C  0.27488169  0.49890669  0.27225713     0.37100
C687        C  0.22683604  0.47999014  0.24725396     0.36900
C688        C  0.24676705  0.45356989  0.31538621     0.37600
N689        N  0.20273993  0.55449725  0.27456772    -0.43200
N690        N  0.28700025  0.48943703  0.27195657    -0.43600
N691        N  0.25106356  0.44879737  0.32936338    -0.41000
N692        N  0.22300433  0.48542021  0.23338136    -0.42400
H693        H  0.22416348  0.44644707  0.25803003     0.13800
H694        H  0.24914398  0.48654046  0.30420289     0.10200
H695        H  0.21450024  0.51039818  0.27545847     0.11300
H696        H  0.27597179  0.53406357  0.27041348     0.17100
C697        C  0.65680177  0.74136719  0.38390179    -0.01100
C698        C  0.64580907  0.75641250  0.38185884     0.07500
C699        C  0.64877777  0.77145306  0.39253068    -0.07100
C700        C  0.66322077  0.77205148  0.40438638     0.04900
C701        C  0.67494318  0.75732013  0.40559558    -0.14300
C702        C  0.67099474  0.74186225  0.39579867    -0.07600
C703        C  0.63278646  0.75697624  0.36707226     0.05900
C704        C  0.61864087  0.74480167  0.36710782    -0.08700
C705        C  0.60992171  0.74025751  0.35130019     0.00900
C706        C  0.61544662  0.74802589  0.33503601     0.00700
C707        C  0.62804964  0.76190904  0.33553399    -0.12300
C708        C  0.63671881  0.76641778  0.35138125     0.01200
C709        C  0.59622812  0.72676742  0.35217973     0.40500
C710        C  0.65073500  0.77960120  0.35089748     0.37100
C711        C  0.65473265  0.72575752  0.37282088     0.36900
C712        C  0.66602718  0.78820073  0.41442857     0.37600
N713        N  0.58527468  0.71593655  0.35294878    -0.43200
N714        N  0.66193861  0.79019501  0.35060579    -0.43600
N715        N  0.66817718  0.80118747  0.42245092    -0.41000
N716        N  0.65309407  0.71332874  0.36386055    -0.42400
H717        H  0.67966118  0.73035239  0.39658655     0.13800
H718        H  0.64027226  0.78301128  0.39100602     0.10200
H719        H  0.61543272  0.73772947  0.37926268     0.11300
H720        H  0.63209461  0.76842894  0.32333360     0.17100
C721        C  0.75631690  0.76563735  0.55163005    -0.01100
C722        C  0.75019162  0.75275303  0.53947258     0.07500
C723        C  0.74745191  0.73522449  0.54521109    -0.07100
C724        C  0.75016923  0.73041987  0.56293253     0.04900
C725        C  0.75603458  0.74335653  0.57537247    -0.14300
C726        C  0.75920666  0.76087173  0.56939829    -0.07600
C727        C  0.74632270  0.75706742  0.52067403     0.05900
C728        C  0.76043885  0.76098994  0.50920329    -0.08700
C729        C  0.75760143  0.76280347  0.49090059     0.00900
C730        C  0.74018578  0.76099752  0.48384940     0.00700
C731        C  0.72600631  0.75779081  0.49559171    -0.12300
C732        C  0.72895253  0.75563584  0.51378672     0.01200
C733        C  0.77296003  0.76578102  0.47978975     0.40500
C734        C  0.71399814  0.75148031  0.52508612     0.37100
C735        C  0.75908223  0.78392790  0.54633414     0.36900
C736        C  0.74613930  0.71225681  0.56784570     0.37600
N737        N  0.78533558  0.76802983  0.47093910    -0.43200
N738        N  0.70204413  0.74800993  0.53411985    -0.43600
N739        N  0.74277966  0.69767974  0.57160434    -0.41000
N740        N  0.76127752  0.79860131  0.54212658    -0.42400
H741        H  0.76362117  0.77100315  0.57868281     0.13800
H742        H  0.74285291  0.72528550  0.53578334     0.10200
H743        H  0.77383641  0.76189884  0.51449756     0.11300
H744        H  0.71257265  0.75636370  0.49051920     0.17100
C745        C  0.67596083  0.61902570  0.29223025    -0.01100
C746        C  0.67423375  0.63620197  0.28495194     0.07500
C747        C  0.68938868  0.64529803  0.27906222    -0.07100
C748        C  0.70630524  0.63795040  0.28104022     0.04900
C749        C  0.70823546  0.62083151  0.28869876    -0.14300
C750        C  0.69286964  0.61139408  0.29385187    -0.07600
C751        C  0.65733743  0.64620975  0.28532999     0.05900
C752        C  0.65179314  0.65333812  0.30159104    -0.08700
C753        C  0.63905866  0.66687057  0.30216171     0.00900
C754        C  0.63152660  0.67333470  0.28619299     0.00700
C755        C  0.63590361  0.66496402  0.27007515    -0.12300
C756        C  0.64886348  0.65159363  0.26953390     0.01200
C757        C  0.63444785  0.67427551  0.31925159     0.40500
C758        C  0.65401857  0.64420495  0.25259933     0.37100
C759        C  0.66067360  0.60926861  0.29857227     0.36900
C760        C  0.72135590  0.64904803  0.27653306     0.37600
N761        N  0.63078213  0.68023709  0.33294048    -0.43200
N762        N  0.65826133  0.63819783  0.23910041    -0.43600
N763        N  0.73336240  0.65807726  0.27308689    -0.41000
N764        N  0.64845365  0.60142478  0.30371339    -0.42400
H765        H  0.69409445  0.59828341  0.29979782     0.13800
H766        H  0.68804847  0.65870471  0.27381240     0.10200
H767        H  0.65832425  0.64917639  0.31376463     0.11300
H768        H  0.63011341  0.66968262  0.25774292     0.17100
C769        C  0.77353172  0.65073689  0.37711887    -0.01100
C770        C  0.75748598  0.65904729  0.38218837     0.07500
C771        C  0.74141584  0.65262921  0.37512945    -0.07100
C772        C  0.74114257  0.63883151  0.36265798     0.04900
C773        C  0.75729262  0.63144618  0.35650017    -0.14300
C774        C  0.77332171  0.63708513  0.36435751    -0.07600
C775        C  0.75701099  0.67540512  0.39345277     0.05900
C776        C  0.76643759  0.69060965  0.38792040    -0.08700
C777        C  0.76378210  0.70720016  0.39607409     0.00900
C778        C  0.75113810  0.70887315  0.40990054     0.00700
C779        C  0.74276832  0.69335220  0.41626227    -0.12300
C780        C  0.74558790  0.67678614  0.40824377     0.01200
C781        C  0.77379155  0.72224815  0.38948263     0.40500
C782        C  0.73613207  0.66150638  0.41512038     0.37100
C783        C  0.79037407  0.65615112  0.38461551     0.36900
C784        C  0.72404104  0.63268206  0.35635269     0.37600
N785        N  0.78191395  0.73424232  0.38419616    -0.43200
N786        N  0.72844199  0.64932282  0.42060612    -0.43600
N787        N  0.71029910  0.62774804  0.35142990    -0.41000
N788        N  0.80388272  0.66048242  0.39061952    -0.42400
H789        H  0.78581258  0.63144775  0.35991617     0.13800
H790        H  0.72898436  0.65886923  0.37890430     0.10200
H791        H  0.77526864  0.68972858  0.37656953     0.11300
H792        H  0.73333315  0.69420979  0.42711874     0.17100
C793        C  0.76172446  0.52186968  0.27256553    -0.01100
C794        C  0.75470558  0.50945426  0.28468041     0.07500
C795        C  0.75107106  0.51480058  0.30212599    -0.07100
C796        C  0.75371674  0.53246556  0.30750407     0.04900
C797        C  0.75979850  0.54529846  0.29510338    -0.14300
C798        C  0.76400474  0.53965562  0.27775358    -0.07600
C799        C  0.75042525  0.49092461  0.27940868     0.05900
C800        C  0.76421048  0.47864927  0.27708872    -0.08700
C801        C  0.76052133  0.46062330  0.27384941     0.00900
C802        C  0.74261789  0.45463083  0.27297703     0.00700
C803        C  0.72890564  0.46725663  0.27443828    -0.12300
C804        C  0.73266318  0.48522220  0.27765378     0.01200
C805        C  0.77543753  0.44870653  0.27187832     0.40500
C806        C  0.71807159  0.49758202  0.27932172     0.37100
C807        C  0.76638300  0.51670698  0.25469393     0.36900
C808        C  0.74968215  0.53692576  0.32570784     0.37600
N809        N  0.78746359  0.43924404  0.27029812    -0.43200
N810        N  0.70640098  0.50751170  0.28065564    -0.43600
N811        N  0.74651728  0.54035748  0.34035245    -0.41000
N812        N  0.77025892  0.51250806  0.24042587    -0.42400
H813        H  0.76892741  0.54918171  0.26811120     0.13800
H814        H  0.74593118  0.50512339  0.31152422     0.10200
H815        H  0.77789573  0.48310636  0.27828658     0.11300
H816        H  0.71512364  0.46305493  0.27354495     0.17100
C817        C  0.64611689  0.74142357  0.68282492    -0.01100
C818        C  0.65451742  0.75695121  0.67629803     0.07500
C819        C  0.64790256  0.77365382  0.68145897    -0.07100
C820        C  0.63476309  0.77509686  0.69457663     0.04900
C821        C  0.62773349  0.75949926  0.70254014    -0.14300
C822        C  0.63279851  0.74284349  0.69568052    -0.07600
C823        C  0.67146242  0.75595054  0.66605647     0.05900
C824        C  0.67223779  0.74586291  0.65037577    -0.08700
C825        C  0.68853031  0.74236556  0.64203477     0.00900
C826        C  0.70452069  0.74938417  0.64922918     0.00700
C827        C  0.70349936  0.76049265  0.66420071    -0.12300
C828        C  0.68729189  0.76369914  0.67268534     0.01200
C829        C  0.68831586  0.73125560  0.62637138     0.40500
C830        C  0.68753309  0.77416141  0.68879391     0.37100
C831        C  0.65180105  0.72378547  0.67770486     0.36900
C832        C  0.62967096  0.79274596  0.70022715     0.37600
N833        N  0.68803869  0.72230874  0.61384910    -0.43200
N834        N  0.68774833  0.78262184  0.70164577    -0.43600
N835        N  0.62568328  0.80693590  0.70471224    -0.41000
N836        N  0.65621909  0.70961088  0.67359911    -0.42400
H837        H  0.62723328  0.73071840  0.70124286     0.13800
H838        H  0.65385324  0.78565540  0.67602696     0.10200
H839        H  0.66011004  0.74017722  0.64497001     0.11300
H840        H  0.71554948  0.76606739  0.66988432     0.17100
C841        C  0.51983224  0.75455709  0.78165368    -0.01100
C842        C  0.50796645  0.75693149  0.76738106     0.07500
C843        C  0.51453014  0.76206312  0.75076063    -0.07100
C844        C  0.53281900  0.76400802  0.74791851     0.04900
C845        C  0.54491727  0.76095390  0.76205651    -0.14300
C846        C  0.53810817  0.75663482  0.77893089    -0.07600
C847        C  0.48881744  0.75275925  0.76908882     0.05900
C848        C  0.47637487  0.76658828  0.76841146    -0.08700
C849        C  0.45811011  0.76297398  0.76929558     0.00900
C850        C  0.45207615  0.74511608  0.77090535     0.00700
C851        C  0.46470430  0.73134322  0.77149851    -0.12300
C852        C  0.48289323  0.73500943  0.77052477     0.01200
C853        C  0.44602764  0.77784511  0.76794769     0.40500
C854        C  0.49525834  0.72031108  0.77044205     0.37100
C855        C  0.51354833  0.74963462  0.79910174     0.36900
C856        C  0.53861134  0.76869372  0.73024274     0.37600
N857        N  0.43641154  0.78981212  0.76680437    -0.43200
N858        N  0.50523242  0.70859399  0.77033917    -0.43600
N859        N  0.54315244  0.77238854  0.71602568    -0.41000
N860        N  0.50849286  0.74563660  0.81305927    -0.42400
H861        H  0.54708785  0.75435272  0.78997466     0.13800
H862        H  0.50533950  0.76392237  0.73979569     0.10200
H863        H  0.48097335  0.78023443  0.76703485     0.11300
H864        H  0.46039050  0.71758415  0.77257788     0.17100
C865        C  0.73744296  0.65968519  0.67461493    -0.01100
C866        C  0.75307431  0.65154949  0.68097661     0.07500
C867        C  0.76952121  0.65629489  0.67356682    -0.07100
C868        C  0.77071403  0.67003164  0.66099935     0.04900
C869        C  0.75522131  0.67945126  0.65603321    -0.14300
C870        C  0.73864887  0.67359299  0.66235966    -0.07600
C871        C  0.75258155  0.64001722  0.69693545     0.05900
C872        C  0.74417522  0.62335765  0.69607515    -0.08700
C873        C  0.74085081  0.61355394  0.71156438     0.00900
C874        C  0.74597759  0.62052934  0.72829655     0.00700
C875        C  0.75555130  0.63660036  0.72889680    -0.12300
C876        C  0.75874292  0.64641548  0.71345455     0.01200
C877        C  0.73201374  0.59653696  0.70983967     0.40500
C878        C  0.76717061  0.66365688  0.71509847     0.37100
C879        C  0.72010651  0.65482168  0.68131367     0.36900
C880        C  0.78808894  0.67492363  0.65446724     0.37600
N881        N  0.72498597  0.58287927  0.70835570    -0.43200
N882        N  0.77388052  0.67748443  0.71645363    -0.43600
N883        N  0.80204019  0.67872453  0.64919601    -0.41000
N884        N  0.70618449  0.65088323  0.68656034    -0.42400
H885        H  0.72661742  0.68047097  0.65835363     0.13800
H886        H  0.78152931  0.64985759  0.67829458     0.10200
H887        H  0.73961601  0.61834072  0.68334088     0.11300
H888        H  0.75958547  0.64213381  0.74159339     0.17100
C889        C  0.65625110  0.65186588  0.76277169    -0.01100
C890        C  0.64992541  0.65884203  0.77895900     0.07500
C891        C  0.65497698  0.65073316  0.79495812    -0.07100
C892        C  0.66705797  0.63652806  0.79510275     0.04900
C893        C  0.67438857  0.63031676  0.77892088    -0.14300
C894        C  0.66832703  0.63774252  0.76288061    -0.07600
C895        C  0.63917242  0.67538957  0.77931894     0.05900
C896        C  0.62224837  0.67536472  0.77151458    -0.08700
C897        C  0.61291773  0.69128890  0.76897986     0.00900
C898        C  0.62063839  0.70768530  0.77425379     0.00700
C899        C  0.63697842  0.70745635  0.78334071    -0.12300
C900        C  0.64629087  0.69152767  0.78583869     0.01200
C901        C  0.59557586  0.69033121  0.76078495     0.40500
C902        C  0.66364154  0.69228032  0.79406445     0.37100
C903        C  0.65145873  0.65971732  0.74591165     0.36900
C904        C  0.67244722  0.62946217  0.81211230     0.37600
N905        N  0.58165174  0.68946772  0.75427305    -0.43200
N906        N  0.67752936  0.69293279  0.80067747    -0.43600
N907        N  0.67671270  0.62383203  0.82577888    -0.41000
N908        N  0.64760954  0.66598857  0.73240228    -0.42400
H909        H  0.67369340  0.63308338  0.75034930     0.13800
H910        H  0.64996632  0.65597705  0.80740887     0.10200
H911        H  0.61660229  0.66290558  0.76681532     0.11300
H912        H  0.64304128  0.71987281  0.78760798     0.17100
C913        C  0.72180026  0.51525957  0.76570904    -0.01100
C914        C  0.73861066  0.50741233  0.76829948     0.07500
C915        C  0.75269654  0.51793292  0.77458146    -0.07100
C916        C  0.75033638  0.53612146  0.77809570     0.04900
C917        C  0.73346720  0.54411805  0.77538630    -0.14300
C918        C  0.71934434  0.53337233  0.76934012    -0.07600
C919        C  0.74162972  0.48822846  0.76451666     0.05900
C920        C  0.73976107  0.48200685  0.74704453    -0.08700
C921        C  0.74106375  0.46380667  0.74310731     0.00900
C922        C  0.74426172  0.45138423  0.75691886     0.00700
C923        C  0.74677160  0.45781806  0.77431330    -0.12300
C924        C  0.74557986  0.47602123  0.77816518     0.01200
C925        C  0.73850604  0.45839600  0.72487484     0.40500
C926        C  0.74790576  0.48178621  0.79632335     0.37100
C927        C  0.70683918  0.50494695  0.75937744     0.36900
C928        C  0.76556948  0.54610866  0.78427119     0.37600
N929        N  0.73645327  0.45416308  0.71022918    -0.43200
N930        N  0.74985534  0.48642975  0.81085628    -0.43600
N931        N  0.77784879  0.55404100  0.78917038    -0.41000
N932        N  0.69491813  0.49664599  0.75421563    -0.42400
H933        H  0.70633734  0.53917248  0.76710603     0.13800
H934        H  0.76565709  0.51192082  0.77655203     0.10200
H935        H  0.73693872  0.49142292  0.73648099     0.11300
H936        H  0.74944756  0.44858382  0.78505928     0.17100
C937        C  0.64035911  0.33230783  0.79356657    -0.01100
C938        C  0.64872952  0.33760548  0.77769809     0.07500
C939        C  0.64324088  0.33011666  0.76153985    -0.07100
C940        C  0.63041215  0.31661764  0.76111153     0.04900
C941        C  0.62292984  0.31031272  0.77713791    -0.14300
C942        C  0.62747615  0.31877593  0.79318501    -0.07600
C943        C  0.66433735  0.34966115  0.77756965     0.05900
C944        C  0.68078250  0.34292806  0.78315556    -0.08700
C945        C  0.69653638  0.35243161  0.78011087     0.00900
C946        C  0.69590261  0.36915854  0.77137850     0.00700
C947        C  0.67921039  0.37630553  0.76685343    -0.12300
C948        C  0.66352951  0.36668124  0.76980559     0.01200
C949        C  0.71310158  0.34398981  0.78492023     0.40500
C950        C  0.64677546  0.37424083  0.76429964     0.37100
C951        C  0.64503331  0.34037095  0.81034400     0.36900
C952        C  0.62525626  0.30941862  0.74406501     0.37600
N953        N  0.72633887  0.33712582  0.78871797    -0.43200
N954        N  0.63330611  0.38024579  0.75992435    -0.43600
N955        N  0.62106650  0.30371770  0.73039705    -0.41000
N956        N  0.64872485  0.34693034  0.82376760    -0.42400
H957        H  0.62170670  0.31416458  0.80555958     0.13800
H958        H  0.64949680  0.33439564  0.74927369     0.10200
H959        H  0.68139561  0.32973229  0.78901970     0.11300
H960        H  0.67841506  0.38917558  0.76034780     0.17100
C961        C  0.51529943  0.22689992  0.78391868    -0.01100
C962        C  0.50293651  0.23927508  0.77730757     0.07500
C963        C  0.50850128  0.25662766  0.77329128    -0.07100
C964        C  0.52627234  0.26173728  0.77539806     0.04900
C965        C  0.53894375  0.24918519  0.78150393    -0.14300
C966        C  0.53312723  0.23188398  0.78589894    -0.07600
C967        C  0.48399943  0.23461200  0.77477683     0.05900
C968        C  0.47329425  0.23204885  0.78975571    -0.08700
C969        C  0.45493946  0.22949363  0.78803599     0.00900
C970        C  0.44703038  0.22938724  0.77091633     0.00700
C971        C  0.45804043  0.23113932  0.75592486    -0.12300
C972        C  0.47633477  0.23384122  0.75772724     0.01200
C973        C  0.44468434  0.22777035  0.80415152     0.40500
C974        C  0.48694159  0.23606108  0.74190182     0.37100
C975        C  0.51005225  0.20891651  0.78833212     0.36900
C976        C  0.53088906  0.27996143  0.77128114     0.37600
N977        N  0.43658010  0.22646265  0.81714756    -0.43200
N978        N  0.49539678  0.23786890  0.72919496    -0.43600
N979        N  0.53443581  0.29461443  0.76801403    -0.41000
N980        N  0.50580296  0.19452462  0.79189733    -0.42400
H981        H  0.54257000  0.22205466  0.79060751     0.13800
H982        H  0.49885076  0.26623891  0.76851134     0.10200
H983        H  0.47924910  0.23266356  0.80288152     0.11300
H984        H  0.45231043  0.23094115  0.74269606     0.17100
C985        C  0.30814519  0.75294002  0.39053838    -0.01100
C986        C  0.32317340  0.74471362  0.39813434     0.07500
C987        C  0.32135973  0.73526368  0.41407522    -0.07100
C988        C  0.30458146  0.73255826  0.42164798     0.04900
C989        C  0.28922790  0.73935252  0.41310064    -0.14300
C990        C  0.29135611  0.75027075  0.39808088    -0.07600
C991        C  0.33995424  0.74319959  0.38797446     0.05900
C992        C  0.35033238  0.75838436  0.38475259    -0.08700
C993        C  0.36430015  0.75791776  0.37243069     0.00900
C994        C  0.36810759  0.74188758  0.36320432     0.00700
C995        C  0.35847663  0.72641992  0.36760098    -0.12300
C996        C  0.34439813  0.72700333  0.37964820     0.01200
C997        C  0.37372920  0.77432284  0.36892907     0.40500
C998        C  0.33367494  0.71117587  0.38204537     0.37100
C999        C  0.30944438  0.76295547  0.37420147     0.36900
C1000       C  0.30356626  0.72236453  0.43788878     0.37600
N1001       N  0.38119754  0.78752735  0.36612563    -0.43200
N1002       N  0.32494921  0.69859775  0.38394257    -0.43600
N1003       N  0.30278961  0.71420894  0.45091482    -0.41000
N1004       N  0.31057675  0.77097113  0.36111679    -0.42400
H1005       H  0.27977934  0.75580870  0.39150836     0.13800
H1006       H  0.33297129  0.72913590  0.42004544     0.10200
H1007       H  0.34690959  0.77083937  0.39120167     0.11300
H1008       H  0.36111710  0.71400004  0.36073077     0.17100
C1009       C  0.24726156  0.64879931  0.38166536    -0.01100
C1010       C  0.23090439  0.64369590  0.37402987     0.07500
C1011       C  0.21503785  0.65001764  0.38143525    -0.07100
C1012       C  0.21531190  0.66244971  0.39535273     0.04900
C1013       C  0.23181354  0.66890237  0.40189387    -0.14300
C1014       C  0.24758012  0.66122607  0.39547835    -0.07600
C1015       C  0.23042901  0.63350990  0.35714774     0.05900
C1016       C  0.23645018  0.61585966  0.35691024    -0.08700
C1017       C  0.23942424  0.60702222  0.34079850     0.00900
C1018       C  0.23646797  0.61600203  0.32451268     0.00700
C1019       C  0.22900876  0.63315090  0.32487617    -0.12300
C1020       C  0.22606239  0.64195806  0.34098495     0.01200
C1021       C  0.24577535  0.58889248  0.34145398     0.40500
C1022       C  0.21981136  0.66014138  0.34052692     0.37100
C1023       C  0.26399165  0.64257010  0.37462982     0.36900
C1024       C  0.19847474  0.66900863  0.40177968     0.37600
N1025       N  0.25081042  0.57434190  0.34202242    -0.43200
N1026       N  0.21481193  0.67471047  0.34015722    -0.43600
N1027       N  0.18489605  0.67411057  0.40687547    -0.41000
N1028       N  0.27740743  0.63759708  0.36901102    -0.42400
H1029       H  0.26034487  0.66575823  0.40049236     0.13800
H1030       H  0.20243011  0.64587089  0.37573358     0.10200
H1031       H  0.23954152  0.60925053  0.36934908     0.11300
H1032       H  0.22651135  0.64018865  0.31254107     0.17100
C1033       C  0.33250467  0.76658176  0.66730667    -0.01100
C1034       C  0.33556163  0.75296228  0.67980248     0.07500
C1035       C  0.32355115  0.73872844  0.68103706    -0.07100
C1036       C  0.30830902  0.73811044  0.67046547     0.04900
C1037       C  0.30486312  0.75198793  0.65820867    -0.14300
C1038       C  0.31731038  0.76591737  0.65648482    -0.07600
C1039       C  0.35041002  0.75356767  0.69272530     0.05900
C1040       C  0.34981676  0.76610114  0.70652037    -0.08700
C1041       C  0.36094314  0.76445865  0.72136862     0.00900
C1042       C  0.37293652  0.74999137  0.72249810     0.00700
C1043       C  0.37459701  0.73848663  0.70783836    -0.12300
C1044       C  0.36338896  0.74008611  0.69310916     0.01200
C1045       C  0.35925756  0.77742110  0.73543522     0.40500
C1046       C  0.36478407  0.72719156  0.67893874     0.37100
C1047       C  0.34464805  0.78139858  0.66556060     0.36900
C1048       C  0.29643359  0.72310799  0.67268612     0.37600
N1049       N  0.35788957  0.78782667  0.74669542    -0.43200
N1050       N  0.36583855  0.71684907  0.66758926    -0.43600
N1051       N  0.28690670  0.71111690  0.67453833    -0.41000
N1052       N  0.35439676  0.79327466  0.66421152    -0.42400
H1053       H  0.31482871  0.77667025  0.64719446     0.13800
H1054       H  0.32587524  0.72826240  0.69070874     0.10200
H1055       H  0.33987745  0.77655924  0.70619002     0.11300
H1056       H  0.38386986  0.72744086  0.70831667     0.17100
C1057       C  0.25739429  0.74858570  0.54526419    -0.01100
C1058       C  0.24038594  0.74982984  0.53758104     0.07500
C1059       C  0.22585111  0.75447523  0.54817411    -0.07100
C1060       C  0.22792472  0.75733918  0.56645743     0.04900
C1061       C  0.24492424  0.75547323  0.57444928    -0.14300
C1062       C  0.25955009  0.75141659  0.56351536    -0.07600
C1063       C  0.23738461  0.74516567  0.51872916     0.05900
C1064       C  0.23499151  0.72721265  0.51427281    -0.08700
C1065       C  0.23308041  0.72193167  0.49654465     0.00900
C1066       C  0.23355959  0.73485581  0.48283033     0.00700
C1067       C  0.23546509  0.75294796  0.48749481    -0.12300
C1068       C  0.23744150  0.75814380  0.50525838     0.01200
C1069       C  0.23074521  0.70316713  0.49297646     0.40500
C1070       C  0.24002884  0.77676776  0.50934806     0.37100
C1071       C  0.27274158  0.74410794  0.53466426     0.36900
C1072       C  0.21225594  0.76180816  0.57655768     0.37600
N1073       N  0.22888874  0.68811543  0.49015949    -0.43200
N1074       N  0.24214731  0.79168797  0.51263377    -0.43600
N1075       N  0.19963684  0.76538927  0.58456925    -0.41000
N1076       N  0.28499392  0.74053808  0.52610090    -0.42400
H1077       H  0.27270872  0.75004511  0.56926041     0.13800
H1078       H  0.21276293  0.75547600  0.54217443     0.10200
H1079       H  0.23487195  0.71725277  0.52472337     0.11300
H1080       H  0.23591599  0.76307205  0.47722684     0.17100
C1081       C  0.73799998  0.34288794  0.37858253    -0.01100
C1082       C  0.75423277  0.34879295  0.37126495     0.07500
C1083       C  0.77024910  0.34262298  0.37860337    -0.07100
C1084       C  0.77027331  0.32964846  0.39205576     0.04900
C1085       C  0.75395261  0.32265020  0.39837577    -0.14300
C1086       C  0.73800253  0.33004222  0.39202425    -0.07600
C1087       C  0.75446596  0.35967363  0.35473067     0.05900
C1088       C  0.74686422  0.37671607  0.35479057    -0.08700
C1089       C  0.74377258  0.38589627  0.33886714     0.00900
C1090       C  0.74821809  0.37790563  0.32240463     0.00700
C1091       C  0.75717595  0.36149023  0.32254001    -0.12300
C1092       C  0.76028222  0.35235648  0.33847472     0.01200
C1093       C  0.73586890  0.40338487  0.33989124     0.40500
C1094       C  0.76837742  0.33494204  0.33767399     0.37100
C1095       C  0.72109265  0.34870833  0.37156350     0.36900
C1096       C  0.78721294  0.32295961  0.39810231     0.37600
N1097       N  0.72959705  0.41742921  0.34071908    -0.43200
N1098       N  0.77490053  0.32100310  0.33708878    -0.43600
N1099       N  0.80083954  0.31764981  0.40288591    -0.41000
N1100       N  0.70753899  0.35334159  0.36594430    -0.42400
H1101       H  0.72535690  0.32503937  0.39686214     0.13800
H1102       H  0.78276763  0.34729252  0.37315187     0.10200
H1103       H  0.74269775  0.38255282  0.36729087     0.11300
H1104       H  0.76090804  0.35526002  0.31009754     0.17100
C1105       C  0.73299172  0.31507109  0.64938301    -0.01100
C1106       C  0.73784108  0.31611853  0.66740010     0.07500
C1107       C  0.73918277  0.30044118  0.67743205    -0.07100
C1108       C  0.73519453  0.28382286  0.66993116     0.04900
C1109       C  0.73009355  0.28270686  0.65184136    -0.14300
C1110       C  0.72933755  0.29846376  0.64172730    -0.07600
C1111       C  0.73966651  0.33342829  0.67667756     0.05900
C1112       C  0.72419270  0.34283736  0.68093641    -0.08700
C1113       C  0.72477728  0.35752103  0.69239551     0.00900
C1114       C  0.74121480  0.36299900  0.69987961     0.00700
C1115       C  0.75687224  0.35433576  0.69436189    -0.12300
C1116       C  0.75619351  0.33962678  0.68292551     0.01200
C1117       C  0.70812556  0.36589930  0.69691978     0.40500
C1118       C  0.77253551  0.33079278  0.67814431     0.37100
C1119       C  0.73131009  0.33090079  0.63863249     0.36900
C1120       C  0.73521751  0.26847106  0.68150634     0.37600
N1121       N  0.69472037  0.37252214  0.70050791    -0.43200
N1122       N  0.78564503  0.32376466  0.67425328    -0.43600
N1123       N  0.73509975  0.25626576  0.69090735    -0.41000
N1124       N  0.72989567  0.34359280  0.63002225    -0.42400
H1125       H  0.72547798  0.29788824  0.62784953     0.13800
H1126       H  0.74257781  0.30130547  0.69142402     0.10200
H1127       H  0.71146978  0.33811193  0.67598675     0.11300
H1128       H  0.76964282  0.35845627  0.69967853     0.17100
C1129       C  0.64193405  0.21169691  0.67213042    -0.01100
C1130       C  0.63409801  0.22704921  0.67948918     0.07500
C1131       C  0.63779099  0.24374538  0.67196123    -0.07100
C1132       C  0.65035076  0.24553188  0.65841220     0.04900
C1133       C  0.65943247  0.23034493  0.65208497    -0.14300
C1134       C  0.65438722  0.21342199  0.65839167    -0.07600
C1135       C  0.62461100  0.22667189  0.69674530     0.05900
C1136       C  0.63428754  0.22191952  0.71196766    -0.08700
C1137       C  0.62774656  0.22554768  0.72897374     0.00900
C1138       C  0.61121336  0.23428498  0.73089473     0.00700
C1139       C  0.60094377  0.23770813  0.71565742    -0.12300
C1140       C  0.60745480  0.23388830  0.69868221     0.01200
C1141       C  0.63900618  0.22153096  0.74400427     0.40500
C1142       C  0.59654881  0.23791837  0.68341734     0.37100
C1143       C  0.63801106  0.19418854  0.67906657     0.36900
C1144       C  0.65423781  0.26320938  0.65187396     0.37600
N1145       N  0.64807020  0.21830840  0.75601478    -0.43200
N1146       N  0.58774834  0.24106608  0.67119782    -0.43600
N1147       N  0.65739933  0.27737697  0.64667144    -0.41000
N1148       N  0.63484261  0.18017661  0.68466757    -0.42400
H1149       H  0.66114571  0.20162229  0.65357557     0.13800
H1150       H  0.63175065  0.25560719  0.67754289     0.10200
H1151       H  0.64756286  0.21645345  0.71054010     0.11300
H1152       H  0.58803608  0.24402042  0.71696151     0.17100
C1153       C  0.73357614  0.26759393  0.51019417    -0.01100
C1154       C  0.74048516  0.25193282  0.51788332     0.07500
C1155       C  0.75177913  0.24104981  0.50784311    -0.07100
C1156       C  0.75578063  0.24522815  0.49015512     0.04900
C1157       C  0.74829468  0.26056918  0.48217144    -0.14300
C1158       C  0.73754688  0.27179856  0.49252521    -0.07600
C1159       C  0.73566132  0.24649890  0.53621833     0.05900
C1160       C  0.71785491  0.24243361  0.54002827    -0.08700
C1161       C  0.71250704  0.23809715  0.55730995     0.00900
C1162       C  0.72515888  0.23787495  0.57124001     0.00700
C1163       C  0.74312615  0.24122578  0.56717945    -0.12300
C1164       C  0.74843361  0.24550065  0.54988272     0.01200
C1165       C  0.69402237  0.23376101  0.56020353     0.40500
C1166       C  0.76694423  0.24946237  0.54662816     0.37100
C1167       C  0.72237828  0.27954733  0.52019797     0.36900
C1168       C  0.76774011  0.23361201  0.48066562     0.37600
N1169       N  0.67921075  0.23022501  0.56246942    -0.43200
N1170       N  0.78178780  0.25259290  0.54402321    -0.43600
N1171       N  0.77737638  0.22429823  0.47312593    -0.41000
N1172       N  0.71340243  0.28909569  0.52824223    -0.42400
H1173       H  0.73175034  0.28364573  0.48666049     0.13800
H1174       H  0.75725594  0.22908437  0.51377995     0.10200
H1175       H  0.70806951  0.24278459  0.52943337     0.11300
H1176       H  0.75304954  0.24104634  0.57763840     0.17100
C1177       C  0.34336450  0.34280463  0.27741233    -0.01100
C1178       C  0.33451590  0.34686241  0.26136332     0.07500
C1179       C  0.34052523  0.33906381  0.24552245    -0.07100
C1180       C  0.35397899  0.32614364  0.24570178     0.04900
C1181       C  0.36195925  0.32113450  0.26200930    -0.14300
C1182       C  0.35700369  0.33019216  0.27756151    -0.07600
C1183       C  0.31761961  0.35718709  0.26144646     0.05900
C1184       C  0.31740067  0.37443630  0.26863909    -0.08700
C1185       C  0.30130438  0.38288407  0.27270487     0.00900
C1186       C  0.28495073  0.37420648  0.26903503     0.00700
C1187       C  0.28527278  0.35770991  0.26021187    -0.12300
C1188       C  0.30134345  0.34906359  0.25665770     0.01200
C1189       C  0.30210572  0.40007348  0.28129300     0.40500
C1190       C  0.30064900  0.33117753  0.24958402     0.37100
C1191       C  0.33773242  0.35022902  0.29418931     0.36900
C1192       C  0.35811058  0.31725154  0.22920862     0.37600
N1193       N  0.30284583  0.41379598  0.28827677    -0.43200
N1194       N  0.30012186  0.31682797  0.24397216    -0.43600
N1195       N  0.36131844  0.31005262  0.21600230    -0.41000
N1196       N  0.33320525  0.35618872  0.30761614    -0.42400
H1197       H  0.36307738  0.32665477  0.29015477     0.13800
H1198       H  0.33388660  0.34225908  0.23312315     0.10200
H1199       H  0.32987216  0.38086618  0.27208418     0.11300
H1200       H  0.27290146  0.35087727  0.25722505     0.17100
C1201       C  0.61724984  0.33565302  0.28223596    -0.01100
C1202       C  0.63348973  0.33582163  0.27292025     0.07500
C1203       C  0.63992029  0.31985326  0.26572695    -0.07100
C1204       C  0.63114736  0.30365173  0.26869400     0.04900
C1205       C  0.61540760  0.30324126  0.27901006    -0.14300
C1206       C  0.60834706  0.31947811  0.28514288    -0.07600
C1207       C  0.64547134  0.35161598  0.27290858     0.05900
C1208       C  0.65231624  0.35754479  0.28922212    -0.08700
C1209       C  0.66655338  0.36957091  0.28990517     0.00900
C1210       C  0.67436632  0.37576807  0.27396180     0.00700
C1211       C  0.66643079  0.37106487  0.25768702    -0.12300
C1212       C  0.65213997  0.35905313  0.25705233     0.01200
C1213       C  0.67308229  0.37492161  0.30715802     0.40500
C1214       C  0.64486877  0.35415887  0.23997695     0.37100
C1215       C  0.60978149  0.35184492  0.28937014     0.36900
C1216       C  0.63954212  0.28762224  0.26224494     0.37600
N1217       N  0.67822817  0.37920839  0.32101450    -0.43200
N1218       N  0.63903659  0.35032266  0.22626358    -0.43600
N1219       N  0.64637390  0.27479860  0.25715789    -0.41000
N1220       N  0.60381590  0.36483320  0.29508922    -0.42400
H1221       H  0.59619304  0.31948927  0.29289207     0.13800
H1222       H  0.65253158  0.31987274  0.25872633     0.10200
H1223       H  0.64715624  0.35199061  0.30149269     0.11300
H1224       H  0.67204505  0.37592700  0.24533473     0.17100
C1225       C  0.66638331  0.26298402  0.40651397    -0.01100
C1226       C  0.66400033  0.25207624  0.39151996     0.07500
C1227       C  0.67789354  0.24097629  0.38596486    -0.07100
C1228       C  0.69458593  0.24172960  0.39421658     0.04900
C1229       C  0.69747224  0.25381970  0.40838709    -0.14300
C1230       C  0.68295512  0.26365669  0.41489927    -0.07600
C1231       C  0.64847435  0.25427249  0.37965427     0.05900
C1232       C  0.64748141  0.26987766  0.36949049    -0.08700
C1233       C  0.63505120  0.27148515  0.35579456     0.00900
C1234       C  0.62325671  0.25723700  0.35214117     0.00700
C1235       C  0.62331181  0.24222272  0.36330562    -0.12300
C1236       C  0.63594699  0.24058302  0.37690647     0.01200
C1237       C  0.63504974  0.28770951  0.34544310     0.40500
C1238       C  0.63622833  0.22456821  0.38750513     0.37100
C1239       C  0.65225449  0.27425105  0.41294683     0.36900
C1240       C  0.70867186  0.23093291  0.38692796     0.37600
N1241       N  0.63510043  0.30070444  0.33715890    -0.43200
N1242       N  0.63646295  0.21174639  0.39603934    -0.43600
N1243       N  0.71990511  0.22226891  0.38099248    -0.41000
N1244       N  0.64093355  0.28329747  0.41808390    -0.42400
H1245       H  0.68476907  0.27271224  0.42599275     0.13800
H1246       H  0.67603241  0.23257612  0.37437107     0.10200
H1247       H  0.65704750  0.28049895  0.37171995     0.11300
H1248       H  0.61425992  0.23125668  0.36069833     0.17100
C1249       C  0.51029885  0.26698784  0.29550018    -0.01100
C1250       C  0.50229883  0.25487902  0.28357698     0.07500
C1251       C  0.51242300  0.24088142  0.27658275    -0.07100
C1252       C  0.53043629  0.23908794  0.28091645     0.04900
C1253       C  0.53866227  0.25161896  0.29233321    -0.14300
C1254       C  0.52831184  0.26524804  0.29980792    -0.07600
C1255       C  0.48342957  0.25675384  0.27816473     0.05900
C1256       C  0.47813816  0.27215618  0.26902026     0.20100
C1257       C  0.46026384  0.27500375  0.26465515     0.00900
C1258       C  0.44730089  0.26224343  0.26955451     0.00700
C1259       C  0.45282228  0.24644805  0.27795351    -0.12300
C1260       C  0.47067090  0.24361632  0.28225326     0.01200
C1261       C  0.45575639  0.29099011  0.25498962     0.40500
C1262       C  0.47541735  0.22741741  0.29144699     0.37100
C1263       C  0.50026573  0.28126692  0.30351725     0.36900
C1264       C  0.53997923  0.22402897  0.27378981     0.37600
N1265       N  0.45224135  0.30378411  0.24716336    -0.43200
N1266       N  0.47916743  0.21437492  0.29873238    -0.43600
N1267       N  0.54756998  0.21189275  0.26814020    -0.41000
N1268       N  0.49219751  0.29271244  0.30988970    -0.42400
H1269       H  0.53440390  0.27488223  0.30867650     0.13800
H1270       H  0.50625210  0.23142329  0.26757837     0.10200
H1271       H  0.48802152  0.28207181  0.26545200     0.11300
H1272       H  0.44309228  0.23647634  0.28175996     0.17100
C1273       C  0.34078911  0.33848866  0.76909293    -0.01100
C1274       C  0.34890342  0.33403286  0.78537505     0.07500
C1275       C  0.34479177  0.34388400  0.80064424    -0.07100
C1276       C  0.33194166  0.35738896  0.80010356     0.04900
C1277       C  0.32317387  0.36133312  0.78391992    -0.14300
C1278       C  0.32821474  0.35213272  0.76846229    -0.07600
C1279       C  0.35969642  0.31761886  0.78691385     0.05900
C1280       C  0.37601213  0.31659054  0.77801770    -0.08700
C1281       C  0.38453474  0.30017528  0.77571471     0.00900
C1282       C  0.37657775  0.28439566  0.78239561     0.00700
C1283       C  0.36109184  0.28582707  0.79272537    -0.12300
C1284       C  0.35257501  0.30220758  0.79491200     0.01200
C1285       C  0.40101460  0.29997305  0.76589099     0.40500
C1286       C  0.33572793  0.30258923  0.80409260     0.37100
C1287       C  0.34400844  0.32822466  0.75317272     0.36900
C1288       C  0.32698340  0.36575957  0.81662736     0.37600
N1289       N  0.41421926  0.29989922  0.75801224    -0.43200
N1290       N  0.32220799  0.30292654  0.81140322    -0.43600
N1291       N  0.32295262  0.37234497  0.82992232    -0.41000
N1292       N  0.34653710  0.31988773  0.74049479    -0.42400
H1293       H  0.32161427  0.35494229  0.75595160     0.13800
H1294       H  0.35090820  0.34031144  0.81320419     0.10200
H1295       H  0.38158387  0.32850340  0.77203064     0.11300
H1296       H  0.35487416  0.27395007  0.79810999     0.17100
C1297       C  0.32837755  0.62362824  0.76115543    -0.01100
C1298       C  0.32912456  0.63967536  0.77080805     0.07500
C1299       C  0.31379836  0.64575994  0.77949120    -0.07100
C1300       C  0.29759403  0.63663010  0.77788622     0.04900
C1301       C  0.29656056  0.62106260  0.76727785    -0.14300
C1302       C  0.31223050  0.61449292  0.75948500    -0.07600
C1303       C  0.34499287  0.65145788  0.77016695     0.05900
C1304       C  0.34980401  0.65890064  0.75377007    -0.08700
C1305       C  0.36277102  0.67223505  0.75273648     0.00900
C1306       C  0.37121002  0.67836887  0.76839003     0.00700
C1307       C  0.36737615  0.66990953  0.78460736    -0.12300
C1308       C  0.35424837  0.65665616  0.78562158     0.01200
C1309       C  0.36673646  0.67973537  0.73550535     0.40500
C1310       C  0.35008340  0.64898383  0.80270210     0.37100
C1311       C  0.34395901  0.61648432  0.75256220     0.36900
C1312       C  0.28218306  0.64420910  0.78643499     0.37600
N1313       N  0.36989158  0.68577491  0.72171423    -0.43200
N1314       N  0.34671479  0.64284220  0.81639340    -0.43600
N1315       N  0.26988243  0.65035132  0.79331494    -0.41000
N1316       N  0.35646004  0.61076907  0.74568759    -0.42400
H1317       H  0.31180312  0.60242836  0.75155993     0.13800
H1318       H  0.31430847  0.65818138  0.78685793     0.10200
H1319       H  0.34278825  0.65486208  0.74182158     0.11300
H1320       H  0.37376928  0.67445680  0.79671462     0.17100
C1321       C  0.21725815  0.64613432  0.68626586    -0.01100
C1322       C  0.23126926  0.65516944  0.67766864     0.07500
C1323       C  0.24878926  0.64935971  0.68030687    -0.07100
C1324       C  0.25263504  0.63545932  0.69205426     0.04900
C1325       C  0.23870137  0.62671828  0.70116501    -0.14300
C1326       C  0.22103222  0.63180227  0.69764311    -0.07600
C1327       C  0.22856838  0.67189277  0.66744685     0.05900
C1328       C  0.22312021  0.68725446  0.67653854    -0.08700
C1329       C  0.22465869  0.70415155  0.66871986     0.00900
C1330       C  0.23208497  0.70584182  0.65149989     0.00700
C1331       C  0.23597159  0.69025483  0.64190342    -0.12300
C1332       C  0.23419251  0.67340977  0.64967278     0.01200
C1333       C  0.21959859  0.71943058  0.67920637     0.40500
C1334       C  0.23877261  0.65786793  0.63936737     0.37100
C1335       C  0.19904385  0.65181393  0.68420954     0.36900
C1336       C  0.27107260  0.63101867  0.69504481     0.37600
N1337       N  0.21545061  0.73159525  0.68768352    -0.43200
N1338       N  0.24237202  0.64541225  0.63106869    -0.43600
N1339       N  0.28586294  0.62759952  0.69754534    -0.41000
N1340       N  0.18445518  0.65644717  0.68267780    -0.42400
H1341       H  0.21021262  0.62541438  0.70473502     0.13800
H1342       H  0.25963303  0.65638715  0.67386586     0.10200
H1343       H  0.21869856  0.68615245  0.69021545     0.11300
H1344       H  0.24117256  0.69122765  0.62849739     0.17100
C1345       C  0.25110790  0.50999431  0.75311598    -0.01100
C1346       C  0.25507852  0.50421405  0.77047793     0.07500
C1347       C  0.25623747  0.51675110  0.78420905    -0.07100
C1348       C  0.25391974  0.53496123  0.78080223     0.04900
C1349       C  0.25039036  0.54090299  0.76325211    -0.14300
C1350       C  0.24889665  0.52817954  0.74962114    -0.07600
C1351       C  0.25897853  0.48522739  0.77428416     0.05900
C1352       C  0.27442754  0.47770669  0.76712086    -0.08700
C1353       C  0.27824638  0.45961200  0.76943405     0.00900
C1354       C  0.26648295  0.44867613  0.77928114     0.00700
C1355       C  0.25115318  0.45636745  0.78670513    -0.12300
C1356       C  0.24736018  0.47447973  0.78432448     0.01200
C1357       C  0.29375865  0.45254951  0.76063784     0.40500
C1358       C  0.23116160  0.48157729  0.79173326     0.37100
C1359       C  0.24902668  0.49741355  0.73874326     0.36900
C1360       C  0.25596076  0.54716606  0.79550321     0.37600
N1361       N  0.30614967  0.44695335  0.75346641    -0.43200
N1362       N  0.21815421  0.48721869  0.79767077    -0.43600
N1363       N  0.25762235  0.55690497  0.80731520    -0.41000
N1364       N  0.24731911  0.48723695  0.72731520    -0.42400
H1365       H  0.24597014  0.53242211  0.73616438     0.13800
H1366       H  0.25936109  0.51230875  0.79756396     0.10200
H1367       H  0.28334610  0.48597422  0.75934025     0.11300
H1368       H  0.24196371  0.44816386  0.79422458     0.17100
C1369       C  0.25168654  0.33651809  0.35860650    -0.01100
C1370       C  0.23792598  0.33672460  0.37126239     0.07500
C1371       C  0.22511393  0.35021823  0.37062908    -0.07100
C1372       C  0.22529273  0.36292734  0.35692716     0.04900
C1373       C  0.23840716  0.36198873  0.34343940    -0.14300
C1374       C  0.25180491  0.34902168  0.34487335    -0.07600
C1375       C  0.23614954  0.32191198  0.38411722     0.05900
C1376       C  0.24472869  0.32309217  0.40058901    -0.08700
C1377       C  0.24717077  0.30785272  0.41107832     0.00900
C1378       C  0.24122968  0.29104115  0.40481669     0.00700
C1379       C  0.23088084  0.29039680  0.38926356    -0.12300
C1380       C  0.22838891  0.30563871  0.37888258     0.01200
C1381       C  0.25637191  0.30981780  0.42781586     0.40500
C1382       C  0.21899446  0.30401157  0.36221264     0.37100
C1383       C  0.26547526  0.32314031  0.35910709     0.36900
C1384       C  0.21137609  0.37612662  0.35668074     0.37600
N1385       N  0.26368251  0.31143444  0.44126122    -0.43200
N1386       N  0.21149063  0.30272646  0.34884155    -0.43600
N1387       N  0.20019499  0.38669596  0.35663915    -0.41000
N1388       N  0.27651265  0.31242794  0.35955717    -0.42400
H1389       H  0.26215712  0.34824069  0.33488092     0.13800
H1390       H  0.21460729  0.35042779  0.38049016     0.10200
H1391       H  0.25041201  0.33571744  0.40476232     0.11300
H1392       H  0.22588035  0.27773298  0.38441265     0.17100
C1393       C  0.33034350  0.26631348  0.36954204    -0.01100
C1394       C  0.34348434  0.25300269  0.36888181     0.07500
C1395       C  0.34335835  0.23923464  0.38143276    -0.07100
C1396       C  0.32964145  0.23795944  0.39395474     0.04900
C1397       C  0.31571193  0.25061509  0.39382746    -0.14300
C1398       C  0.31662028  0.26503878  0.38195263    -0.07600
C1399       C  0.35544498  0.25186405  0.35339610     0.05900
C1400       C  0.37055525  0.26275407  0.35259582    -0.08700
C1401       C  0.37992798  0.26476390  0.33664099     0.00900
C1402       C  0.37394011  0.25586201  0.32111690     0.00700
C1403       C  0.35963522  0.24385527  0.32248483    -0.12300
C1404       C  0.35033650  0.24189580  0.33839129     0.01200
C1405       C  0.39522447  0.27642977  0.33658081     0.40500
C1406       C  0.33473108  0.23063371  0.33864956     0.37100
C1407       C  0.33000179  0.28065282  0.35672758     0.36900
C1408       C  0.32944579  0.22273155  0.40566624     0.37600
N1409       N  0.40749820  0.28576423  0.33660865    -0.43200
N1410       N  0.32218060  0.22168625  0.33887003    -0.43600
N1411       N  0.32927797  0.21049390  0.41501990    -0.41000
N1412       N  0.32980513  0.29205547  0.34637816    -0.42400
H1413       H  0.30611892  0.27493572  0.38180372     0.13800
H1414       H  0.35343509  0.22892729  0.38077854     0.10200
H1415       H  0.37451147  0.27032801  0.36423078     0.11300
H1416       H  0.35494381  0.23675066  0.31083253     0.17100
C1417       C  0.30730140  0.23084039  0.67315308    -0.01100
C1418       C  0.32257643  0.24164747  0.67141284     0.07500
C1419       C  0.32312334  0.25454517  0.65797014    -0.07100
C1420       C  0.30832030  0.25769421  0.64713631     0.04900
C1421       C  0.29262288  0.24739482  0.64936438    -0.14300
C1422       C  0.29263497  0.23363844  0.66205171    -0.07600
C1423       C  0.33728767  0.24083846  0.68457861     0.05900
C1424       C  0.34643951  0.22475748  0.68717945    -0.08700
C1425       C  0.35854013  0.22282603  0.70121865     0.00900
C1426       C  0.36192482  0.23736505  0.71267109     0.00700
C1427       C  0.35349849  0.25370976  0.70940960    -0.12300
C1428       C  0.34121015  0.25554372  0.69562135     0.01200
C1429       C  0.36596755  0.20540275  0.70447529     0.40500
C1430       C  0.33196088  0.27231375  0.69390304     0.37100
C1431       C  0.30582582  0.21767269  0.68707532     0.36900
C1432       C  0.30948881  0.27225380  0.63464112     0.37600
N1433       N  0.37175332  0.19137712  0.70714569    -0.43200
N1434       N  0.32458103  0.28576588  0.69258223    -0.43600
N1435       N  0.31048780  0.28403881  0.62477113    -0.41000
N1436       N  0.30467946  0.20715567  0.69826136    -0.42400
H1437       H  0.28078523  0.22562649  0.66403078     0.13800
H1438       H  0.33491039  0.26277848  0.65651408     0.10200
H1439       H  0.34346546  0.21342748  0.67872079     0.11300
H1440       H  0.35599515  0.26495558  0.71813701     0.17100
C1441       C  0.23840987  0.35081742  0.71401947    -0.01100
C1442       C  0.24886188  0.35381068  0.69881025     0.07500
C1443       C  0.26131168  0.36768060  0.69876649    -0.07100
C1444       C  0.26441698  0.37776467  0.71411619     0.04900
C1445       C  0.25494985  0.37384466  0.72994255    -0.14300
C1446       C  0.24140517  0.36089598  0.72936174    -0.07600
C1447       C  0.24921041  0.34063236  0.68424787     0.05900
C1448       C  0.23772608  0.34236172  0.66965973    -0.08700
C1449       C  0.23673780  0.32891808  0.65670194     0.00900
C1450       C  0.24723354  0.31341220  0.65854919     0.00700
C1451       C  0.25928146  0.31226023  0.67278349    -0.12300
C1452       C  0.26038523  0.32567935  0.68551218     0.01200
C1453       C  0.22430285  0.33101868  0.64224432     0.40500
C1454       C  0.27274117  0.32357238  0.70008115     0.37100
C1455       C  0.22545243  0.33659024  0.71455995     0.36900
C1456       C  0.27792794  0.39144226  0.71329416     0.37600
N1457       N  0.21435674  0.33279408  0.63063750    -0.43200
N1458       N  0.28266364  0.32188275  0.71172036    -0.43600
N1459       N  0.28878324  0.40237332  0.71254066    -0.41000
N1460       N  0.21511727  0.32514952  0.71498707    -0.42400
H1461       H  0.23386306  0.35779413  0.74123904     0.13800
H1462       H  0.26933041  0.36994915  0.68700832     0.10200
H1463       H  0.22921443  0.35396842  0.66867512     0.11300
H1464       H  0.26765734  0.30059187  0.67422647     0.17100
C1465       C  0.25130072  0.23327759  0.54763037    -0.01100
C1466       C  0.25130747  0.24700051  0.53490325     0.07500
C1467       C  0.24742912  0.26446913  0.54015355    -0.07100
C1468       C  0.24391547  0.26852023  0.55795429     0.04900
C1469       C  0.24478523  0.25493571  0.57098004    -0.14300
C1470       C  0.24822182  0.23733560  0.56550221    -0.07600
C1471       C  0.25477953  0.24343495  0.51590277     0.05900
C1472       C  0.24149658  0.23527060  0.50569749    -0.08700
C1473       C  0.24354503  0.23312638  0.48734344     0.00900
C1474       C  0.25926733  0.23920333  0.47890106     0.00700
C1475       C  0.27286148  0.24669554  0.48940682    -0.12300
C1476       C  0.27069268  0.24892888  0.50772412     0.01200
C1477       C  0.22915152  0.22485255  0.47765445     0.40500
C1478       C  0.28488177  0.25706013  0.51784400     0.37100
C1479       C  0.25459347  0.21499594  0.54266933     0.36900
C1480       C  0.23879307  0.28654662  0.56221855     0.37600
N1481       N  0.21754004  0.21823773  0.46997908    -0.43200
N1482       N  0.29626517  0.26357700  0.52593165    -0.43600
N1483       N  0.23449226  0.30097343  0.56549603    -0.41000
N1484       N  0.25711774  0.20032455  0.53868779    -0.42400
H1485       H  0.24875377  0.22668480  0.57522530     0.13800
H1486       H  0.24692258  0.27493791  0.53022102     0.10200
H1487       H  0.22928576  0.23096977  0.51205945     0.11300
H1488       H  0.28505019  0.25133795  0.48325934     0.17100
C1489       C  0.75778951  0.66538370  0.88452126    -0.01100
C1490       C  0.74545045  0.66627228  0.87047445     0.07500
C1491       C  0.73301484  0.68013262  0.87008950    -0.07100
C1492       C  0.73338755  0.69370149  0.88281604     0.04900
C1493       C  0.74651379  0.69355473  0.89631026    -0.14300
C1494       C  0.75820031  0.67894190  0.89732430    -0.07600
C1495       C  0.74570735  0.65354449  0.85542702     0.05900
C1496       C  0.73894337  0.63633297  0.85779961    -0.08700
C1497       C  0.73680747  0.62478702  0.84331310     0.00900
C1498       C  0.74158725  0.63045967  0.82596640     0.00700
C1499       C  0.74925441  0.64746960  0.82389415    -0.12300
C1500       C  0.75128837  0.65897720  0.83840905     0.01200
C1501       C  0.72915416  0.60746610  0.84671621     0.40500
C1502       C  0.75883117  0.67647515  0.83557438     0.37100
C1503       C  0.77074811  0.65125487  0.88550421     0.36900
C1504       C  0.72032252  0.70769961  0.88140258     0.37600
N1505       N  0.72296462  0.59360340  0.84945229    -0.43200
N1506       N  0.76485917  0.69052444  0.83349477    -0.43600
N1507       N  0.70984278  0.71890753  0.88022401    -0.41000
N1508       N  0.78116354  0.63995554  0.88631684    -0.42400
H1509       H  0.76831005  0.67852476  0.90760489     0.13800
H1510       H  0.72327829  0.68060171  0.85944575     0.10200
H1511       H  0.73471440  0.63214767  0.87093178     0.11300
H1512       H  0.75312154  0.65209346  0.81080395     0.17100
C1513       C  0.68403329  0.75275494  0.19821178    -0.01100
C1514       C  0.66587311  0.75540001  0.19455188     0.07500
C1515       C  0.66059860  0.76059037  0.17749171    -0.07100
C1516       C  0.67317235  0.76327497  0.16403918     0.04900
C1517       C  0.69149129  0.76043586  0.16755939    -0.14300
C1518       C  0.69661845  0.75515963  0.18476087    -0.07600
C1519       C  0.65220794  0.75222149  0.20831058     0.05900
C1520       C  0.65055224  0.76431171  0.22239666    -0.08700
C1521       C  0.63916357  0.76070566  0.23666175     0.00900
C1522       C  0.62929175  0.74462659  0.23695704     0.00700
C1523       C  0.63024138  0.73310027  0.22226059    -0.12300
C1524       C  0.64163502  0.73672786  0.20805822     0.01200
C1525       C  0.63794701  0.77370695  0.25074735     0.40500
C1526       C  0.64303904  0.72386643  0.19386345     0.37100
C1527       C  0.69000830  0.74741746  0.21566164     0.36900
C1528       C  0.66674980  0.76904797  0.14690603     0.37600
N1529       N  0.63693603  0.78415601  0.26200710    -0.43200
N1530       N  0.64421480  0.71354839  0.18250478    -0.43600
N1531       N  0.66150979  0.77375266  0.13322972    -0.41000
N1532       N  0.69473052  0.74319060  0.22967647    -0.42400
H1533       H  0.71055742  0.75312073  0.18785029     0.13800
H1534       H  0.64658284  0.76262250  0.17472422     0.10200
H1535       H  0.65851637  0.77638673  0.22242287     0.11300
H1536       H  0.62273193  0.72074079  0.22221923     0.17100
C1537       C  0.75591118  0.75191953  0.01288175    -0.01100
C1538       C  0.73971208  0.74573011  0.01997084     0.07500
C1539       C  0.72798152  0.73613943  0.00908054    -0.07100
C1540       C  0.73192784  0.73316670  0.99110329     0.04900
C1541       C  0.74810712  0.73964542  0.98384877    -0.14300
C1542       C  0.76003398  0.74870396  0.99508291    -0.07600
C1543       C  0.73461973  0.75000245  0.03850745     0.05900
C1544       C  0.73095224  0.76777431  0.04284856    -0.08700
C1545       C  0.72843173  0.77297059  0.06051330     0.00900
C1546       C  0.72963356  0.76018661  0.07428703     0.00700
C1547       C  0.73210268  0.74216479  0.06972664    -0.12300
C1548       C  0.73465916  0.73702148  0.05201469     0.01200
C1549       C  0.72476705  0.79152133  0.06400019     0.40500
C1550       C  0.73831225  0.71854793  0.04814366     0.37100
C1551       C  0.76840206  0.76191175  0.02356885     0.36900
C1552       C  0.71893952  0.72375372  0.98050215     0.37600
N1553       N  0.72180172  0.80639831  0.06672190    -0.43200
N1554       N  0.74125940  0.70373621  0.04507583    -0.43600
N1555       N  0.70842356  0.71627497  0.97207192    -0.41000
N1556       N  0.77835331  0.77001153  0.03210554    -0.42400
H1557       H  0.77244412  0.75386527  0.98983853     0.13800
H1558       H  0.71549328  0.73139866  0.01453612     0.10200
H1559       H  0.73059618  0.77771771  0.03239619     0.11300
H1560       H  0.73291235  0.73215015  0.08007098     0.17100
C1561       C  0.83195177  0.64886076  0.29509743    -0.01100
C1562       C  0.83180806  0.65823946  0.27891656     0.07500
C1563       C  0.81930143  0.65368165  0.26583924    -0.07100
C1564       C  0.80619315  0.64078271  0.26919176     0.04900
C1565       C  0.80543745  0.63236068  0.28600986    -0.14300
C1566       C  0.81883875  0.63609812  0.29853223    -0.07600
C1567       C  0.84375152  0.67369385  0.27597165     0.05900
C1568       C  0.85773252  0.67231236  0.26379598    -0.08700
C1569       C  0.86897079  0.68686846  0.26045815     0.00900
C1570       C  0.86606302  0.70332407  0.26926501     0.00700
C1571       C  0.85228347  0.70440315  0.28181856    -0.12300
C1572       C  0.84115803  0.68983837  0.28516368     0.01200
C1573       C  0.88336263  0.68437234  0.24803607     0.40500
C1574       C  0.82675692  0.69195145  0.29766017     0.37100
C1575       C  0.84523514  0.65243023  0.30850736     0.36900
C1576       C  0.79382491  0.63647259  0.25513673     0.37600
N1577       N  0.89491469  0.68227148  0.23811788    -0.43200
N1578       N  0.81522597  0.69360682  0.30768305    -0.43600
N1579       N  0.78403032  0.63296497  0.24378314    -0.41000
N1580       N  0.85592747  0.65531772  0.31919999    -0.42400
H1581       H  0.81869399  0.62958577  0.31139158     0.13800
H1582       H  0.81944353  0.66062903  0.25320233     0.10200
H1583       H  0.85985045  0.65981175  0.25688624     0.11300
H1584       H  0.84976803  0.71685059  0.28867375     0.17100
C1585       C  0.84648739  0.74033760  0.17950465    -0.01100
C1586       C  0.83478736  0.75475080  0.17684401     0.07500
C1587       C  0.83652052  0.77003831  0.18741240    -0.07100
C1588       C  0.84903808  0.77079687  0.20111937     0.04900
C1589       C  0.86042715  0.75617028  0.20418930    -0.14300
C1590       C  0.85942276  0.74126924  0.19293631    -0.07600
C1591       C  0.81930587  0.75368683  0.16466624     0.05900
C1592       C  0.80501823  0.74264210  0.16937116    -0.08700
C1593       C  0.78850693  0.74417132  0.16087336     0.00900
C1594       C  0.78612895  0.75702324  0.14728012     0.00700
C1595       C  0.80097354  0.76699555  0.14165118    -0.12300
C1596       C  0.81741091  0.76549041  0.15025945     0.01200
C1597       C  0.77406966  0.73326850  0.16736756     0.40500
C1598       C  0.83197408  0.77667814  0.14456841     0.37100
C1599       C  0.84500704  0.72428066  0.16905478     0.36900
C1600       C  0.84962000  0.78658127  0.21211629     0.37600
N1601       N  0.76253942  0.72453408  0.17267618    -0.43200
N1602       N  0.84365100  0.78563699  0.14000607    -0.43600
N1603       N  0.85003467  0.79917240  0.22099018    -0.41000
N1604       N  0.84374367  0.71137412  0.16073151    -0.42400
H1605       H  0.86800388  0.72992185  0.19532336     0.13800
H1606       H  0.82745557  0.78110066  0.18548031     0.10200
H1607       H  0.80644803  0.73358165  0.18051942     0.11300
H1608       H  0.79956066  0.77667330  0.13104111     0.17100
C1609       C  0.13890407  0.75388617  0.35175302    -0.01100
C1610       C  0.15408045  0.74309361  0.34998142     0.07500
C1611       C  0.15660436  0.73342588  0.33426761    -0.07100
C1612       C  0.14471576  0.73500731  0.32001584     0.04900
C1613       C  0.13007889  0.74681334  0.32124104    -0.14300
C1614       C  0.12718113  0.75580208  0.33741176    -0.07600
C1615       C  0.16762811  0.74185821  0.36425957     0.05900
C1616       C  0.16320704  0.73337826  0.38022242    -0.08700
C1617       C  0.17586220  0.73119084  0.39369714     0.00900
C1618       C  0.19341432  0.73773766  0.39132089     0.00700
C1619       C  0.19761785  0.74662134  0.37541844    -0.12300
C1620       C  0.18495826  0.74865763  0.36193843     0.01200
C1621       C  0.17053594  0.72142937  0.40935168     0.40500
C1622       C  0.19007846  0.75772007  0.34580571     0.37100
C1623       C  0.13539117  0.76350433  0.36798688     0.36900
C1624       C  0.14818653  0.72455265  0.30430828     0.37600
N1625       N  0.16623387  0.71353917  0.42184406    -0.43200
N1626       N  0.19422553  0.76495170  0.33287590    -0.43600
N1627       N  0.15099044  0.71604855  0.29180096    -0.41000
N1628       N  0.13256966  0.77106569  0.38107766    -0.42400
H1629       H  0.11594545  0.76472410  0.33877128     0.13800
H1630       H  0.16806058  0.72474889  0.33308349     0.10200
H1631       H  0.14989519  0.72805215  0.38196483     0.11300
H1632       H  0.21096415  0.75170028  0.37330734     0.17100
C1633       C  0.01692231  0.74114715  0.26679596    -0.01100
C1634       C  0.00559301  0.75601031  0.26789102     0.07500
C1635       C  0.01272563  0.77269888  0.27229563    -0.07100
C1636       C  0.03099729  0.77483496  0.27531172     0.04900
C1637       C  0.04254582  0.76002425  0.27372859    -0.14300
C1638       C  0.03520328  0.74323186  0.26971660    -0.07600
C1639       C  0.98618447  0.75438340  0.26482536     0.05900
C1640       C  0.97560674  0.74651999  0.27796993    -0.08700
C1641       C  0.95711964  0.74533818  0.27595378     0.00900
C1642       C  0.94889114  0.75205577  0.26038025     0.00700
C1643       C  0.95967944  0.75951729  0.24704558    -0.12300
C1644       C  0.97813325  0.76084484  0.24920745     0.01200
C1645       C  0.94710802  0.73701652  0.29006005     0.40500
C1646       C  0.98853910  0.76892253  0.23524685     0.37100
C1647       C  0.01013008  0.72373957  0.26218726     0.36900
C1648       C  0.03733915  0.79228982  0.28038013     0.37600
N1649       N  0.93919687  0.73033814  0.30144324    -0.43200
N1650       N  0.99682892  0.77543660  0.22404214    -0.43600
N1651       N  0.04234280  0.80628570  0.28451909    -0.41000
N1652       N  0.00467953  0.70979601  0.25846582    -0.42400
H1653       H  0.04380279  0.73173397  0.26840303     0.13800
H1654       H  0.00393758  0.78408364  0.27344438     0.10200
H1655       H  0.98183613  0.74147098  0.28995848     0.11300
H1656       H  0.95366589  0.76471120  0.23501559     0.17100
C1657       C  0.74925438  0.17413765  0.67763088    -0.01100
C1658       C  0.73966597  0.15797058  0.67727502     0.07500
C1659       C  0.72603312  0.15562717  0.66482460    -0.07100
C1660       C  0.72153153  0.16926946  0.65299747     0.04900
C1661       C  0.73078843  0.18575226  0.65364611    -0.14300
C1662       C  0.74487088  0.18774482  0.66578118    -0.07600
C1663       C  0.74296634  0.14383064  0.69053366     0.05900
C1664       C  0.72967880  0.13990649  0.70298948    -0.08700
C1665       C  0.73308593  0.12840394  0.71720891     0.00900
C1666       C  0.75022303  0.12098337  0.71927108     0.00700
C1667       C  0.76295290  0.12373382  0.70585489    -0.12300
C1668       C  0.75938524  0.13493654  0.69147941     0.01200
C1669       C  0.71877395  0.12445001  0.72936264     0.40500
C1670       C  0.77280436  0.13734965  0.67797775     0.37100
C1671       C  0.76300577  0.17748222  0.69064489     0.36900
C1672       C  0.70714643  0.16592706  0.64070730     0.37600
N1673       N  0.70725218  0.12113792  0.73899780    -0.43200
N1674       N  0.78347102  0.13931443  0.66708364    -0.43600
N1675       N  0.69559894  0.16311649  0.63091376    -0.41000
N1676       N  0.77404821  0.18021220  0.70102320    -0.42400
H1677       H  0.75206866  0.20026339  0.66657216     0.13800
H1678       H  0.71869038  0.14316331  0.66456615     0.10200
H1679       H  0.71679646  0.14629338  0.70190105     0.11300
H1680       H  0.77602554  0.11775633  0.70693637     0.17100
C1681       C  0.68806035  0.84259598  0.77661178    -0.01100
C1682       C  0.67135424  0.84489630  0.78472502     0.07500
C1683       C  0.66844964  0.85974636  0.79557929    -0.07100
C1684       C  0.68226899  0.87170731  0.79933976     0.04900
C1685       C  0.69949232  0.86863100  0.79234084    -0.14300
C1686       C  0.70196066  0.85433871  0.78053848    -0.07600
C1687       C  0.65731141  0.83115168  0.78305521     0.05900
C1688       C  0.66033877  0.81438100  0.79064220    -0.08700
C1689       C  0.64834368  0.80036058  0.78805500     0.00900
C1690       C  0.63301929  0.80300454  0.77744336     0.00700
C1691       C  0.62942294  0.82021524  0.77094891    -0.12300
C1692       C  0.64141184  0.83425683  0.77369237     0.01200
C1693       C  0.65220801  0.78349931  0.79645206     0.40500
C1694       C  0.63758177  0.85145654  0.76602393     0.37100
C1695       C  0.69124447  0.82818391  0.76430779     0.36900
C1696       C  0.67844434  0.88648280  0.81100149     0.37600
N1697       N  0.65536553  0.77006442  0.80330346    -0.43200
N1698       N  0.63449951  0.86525790  0.75990965    -0.43600
N1699       N  0.67533272  0.89835229  0.82029980    -0.41000
N1700       N  0.69374429  0.81669340  0.75437407    -0.42400
H1701       H  0.71492251  0.85201494  0.77468426     0.13800
H1702       H  0.65550375  0.86163073  0.80163635     0.10200
H1703       H  0.67235182  0.81216423  0.79832988     0.11300
H1704       H  0.61765398  0.82255046  0.76294427     0.17100
C1705       C  0.72716799  0.81143904  0.89074491    -0.01100
C1706       C  0.73323066  0.82671966  0.89983946     0.07500
C1707       C  0.73997963  0.82497991  0.91710204    -0.07100
C1708       C  0.74236965  0.80810188  0.92467881     0.04900
C1709       C  0.73802909  0.79262233  0.91480693    -0.14300
C1710       C  0.72944697  0.79456751  0.89833584    -0.07600
C1711       C  0.73604468  0.84364862  0.89010483     0.05900
C1712       C  0.72147108  0.85415542  0.88512835    -0.08700
C1713       C  0.72345500  0.86788871  0.87260479     0.00900
C1714       C  0.74033011  0.87113164  0.86487058     0.00700
C1715       C  0.75508949  0.86158081  0.87118998    -0.12300
C1716       C  0.75306245  0.84784743  0.88350786     0.01200
C1717       C  0.70772726  0.87735507  0.86700026     0.40500
C1718       C  0.76838494  0.83710263  0.88784066     0.37100
C1719       C  0.72028662  0.81263758  0.87285873     0.36900
C1720       C  0.74987120  0.80708017  0.94231520     0.37600
N1721       N  0.69509248  0.88491050  0.86252281    -0.43200
N1722       N  0.78060670  0.82840098  0.89123454    -0.43600
N1723       N  0.75584931  0.80629170  0.95646737    -0.41000
N1724       N  0.71487340  0.81370286  0.85850100    -0.42400
H1725       H  0.72586042  0.78284989  0.89067742     0.13800
H1726       H  0.74448931  0.83675354  0.92417242     0.10200
H1727       H  0.70837385  0.85091478  0.89022134     0.11300
H1728       H  0.76815296  0.86397575  0.86556628     0.17100
C1729       C  0.75037455  0.97345471  0.77414948    -0.01100
C1730       C  0.75576681  0.98688000  0.78600306     0.07500
C1731       C  0.75828011  0.98284358  0.80398608    -0.07100
C1732       C  0.75560615  0.96554507  0.81033805     0.04900
C1733       C  0.75012056  0.95192982  0.79849280    -0.14300
C1734       C  0.74751218  0.95618603  0.78044872    -0.07600
C1735       C  0.75853360  0.00539404  0.78008591     0.05900
C1736       C  0.74366222  0.01577580  0.77601088    -0.08700
C1737       C  0.74548091  0.03390533  0.77216556     0.00900
C1738       C  0.76259607  0.04190140  0.77235598     0.00700
C1739       C  0.77752612  0.03113668  0.77568478    -0.12300
C1740       C  0.77560896  0.01304097  0.77957859     0.01200
C1741       C  0.72945153  0.04384542  0.76857395     0.40500
C1742       C  0.79129961  0.00257365  0.78315497     0.37100
C1743       C  0.74830347  0.97696802  0.75539872     0.36900
C1744       C  0.75893919  0.96229395  0.82894918     0.37600
N1745       N  0.71652962  0.05170331  0.76574221    -0.43200
N1746       N  0.80385556  0.99415401  0.78600268    -0.43600
N1747       N  0.76170263  0.95979829  0.84387027    -0.41000
N1748       N  0.74675312  0.97974631  0.74035581    -0.42400
H1749       H  0.74349196  0.94595199  0.77109806     0.13800
H1750       H  0.76241527  0.99328808  0.81307282     0.10200
H1751       H  0.73052381  0.00976973  0.77636247     0.11300
H1752       H  0.79075751  0.03692109  0.77570110     0.17100
C1753       C  0.68378324  0.25210172  0.86606152    -0.01100
C1754       C  0.66960585  0.23978128  0.86587190     0.07500
C1755       C  0.66965489  0.22554141  0.87785069    -0.07100
C1756       C  0.68363280  0.22327501  0.88991294     0.04900
C1757       C  0.69812281  0.23542124  0.89000067    -0.14300
C1758       C  0.69786982  0.24983751  0.87804003    -0.07600
C1759       C  0.65488697  0.24109606  0.85284857     0.05900
C1760       C  0.65376488  0.22843847  0.83921097    -0.08700
C1761       C  0.64066567  0.22969880  0.82603390     0.00900
C1762       C  0.62837744  0.24398982  0.82636892     0.00700
C1763       C  0.62901430  0.25606448  0.84067741    -0.12300
C1764       C  0.64208862  0.25470139  0.85384404     0.01200
C1765       C  0.64037044  0.21620412  0.81235673     0.40500
C1766       C  0.64219189  0.26742141  0.86823454     0.37100
C1767       C  0.68439825  0.26684475  0.85373623     0.36900
C1768       C  0.68283041  0.20802280  0.90157955     0.37600
N1769       N  0.64016252  0.20533347  0.80145049    -0.43200
N1770       N  0.64232035  0.27757528  0.87980274    -0.43600
N1771       N  0.68211714  0.19578069  0.91090373    -0.41000
N1772       N  0.68483915  0.27867860  0.84388620    -0.42400
H1773       H  0.70883706  0.25924128  0.87781790     0.13800
H1774       H  0.65874523  0.21605171  0.87765257     0.10200
H1775       H  0.66341578  0.21772275  0.83867747     0.11300
H1776       H  0.61961631  0.26698348  0.84134573     0.17100
C1777       C  0.73523722  0.14842262  0.88080864    -0.01100
C1778       C  0.75089288  0.14436690  0.87132774     0.07500
C1779       C  0.76688813  0.15266523  0.87626673    -0.07100
C1780       C  0.76726263  0.16575904  0.88943396     0.04900
C1781       C  0.75123355  0.17133708  0.89745685    -0.14300
C1782       C  0.73549639  0.16188697  0.89371971    -0.07600
C1783       C  0.75069632  0.13336909  0.85489189     0.05900
C1784       C  0.74002215  0.13890052  0.84061058    -0.08700
C1785       C  0.74178744  0.13123992  0.82373795     0.00900
C1786       C  0.75443688  0.11757038  0.82093724     0.00700
C1787       C  0.76434987  0.11138151  0.83555568    -0.12300
C1788       C  0.76270517  0.11920826  0.85233001     0.01200
C1789       C  0.73115809  0.13850077  0.80949071     0.40500
C1790       C  0.77403247  0.11295478  0.86651824     0.37100
C1791       C  0.71869765  0.13931410  0.87716186     0.36900
C1792       C  0.78424682  0.17350591  0.89408630     0.37600
N1793       N  0.72266531  0.14444424  0.79811716    -0.43200
N1794       N  0.78326617  0.10810806  0.87782984    -0.43600
N1795       N  0.79787642  0.17961856  0.89787703    -0.41000
N1796       N  0.70544625  0.13198187  0.87429417    -0.42400
H1797       H  0.72314328  0.16573164  0.90005919     0.13800
H1798       H  0.77904670  0.14954686  0.86919498     0.10200
H1799       H  0.73097440  0.14999571  0.84239229     0.11300
H1800       H  0.77401677  0.10083408  0.83377676     0.17100
C1801       C  0.74091780  0.31878273  0.18190027    -0.01100
C1802       C  0.75020249  0.33489340  0.17943506     0.07500
C1803       C  0.76083872  0.33711204  0.16433977    -0.07100
C1804       C  0.76271754  0.32326180  0.15193361     0.04900
C1805       C  0.75399356  0.30670191  0.15477856    -0.14300
C1806       C  0.74284575  0.30492527  0.16966779    -0.07600
C1807       C  0.74907077  0.34921687  0.19291965     0.05900
C1808       C  0.76212480  0.35017222  0.20619790    -0.08700
C1809       C  0.75976504  0.36108598  0.22112112     0.00900
C1810       C  0.74396794  0.37109558  0.22297019     0.00700
C1811       C  0.73153982  0.37103877  0.20897585    -0.12300
C1812       C  0.73400071  0.36023267  0.19402790     0.01200
C1813       C  0.77376760  0.36183568  0.23423925     0.40500
C1814       C  0.72065874  0.36015017  0.18021570     0.37100
C1815       C  0.72973306  0.31601628  0.19724548     0.36900
C1816       C  0.77375533  0.32649973  0.13658841     0.37600
N1817       N  0.78501029  0.36258497  0.24472781    -0.43200
N1818       N  0.71006350  0.36007024  0.16905345    -0.43600
N1819       N  0.78255878  0.32921675  0.12427891    -0.41000
N1820       N  0.72078473  0.31390929  0.20956317    -0.42400
H1821       H  0.73598071  0.29244781  0.17213835     0.13800
H1822       H  0.76780074  0.34963005  0.16234770     0.10200
H1823       H  0.77386179  0.34185493  0.20521560     0.11300
H1824       H  0.71947964  0.37886844  0.21002125     0.17100
C1825       C  0.74014175  0.25177917  0.04453596    -0.01100
C1826       C  0.75431705  0.24822404  0.03283865     0.07500
C1827       C  0.77181117  0.24889783  0.03928241    -0.07100
C1828       C  0.77534321  0.25231177  0.05722537     0.04900
C1829       C  0.76111305  0.25535633  0.06915206    -0.14300
C1830       C  0.74362756  0.25537350  0.06245441    -0.07600
C1831       C  0.75125422  0.24360358  0.01388073     0.05900
C1832       C  0.74257978  0.25583470  0.00278367    -0.08700
C1833       C  0.73996021  0.25219475  0.98471820     0.00900
C1834       C  0.74641585  0.23609472  0.97735235     0.00700
C1835       C  0.75475929  0.22372549  0.98863346    -0.12300
C1836       C  0.75716608  0.22730071  0.00670254     0.01200
C1837       C  0.73041459  0.26516454  0.97425728     0.40500
C1838       C  0.76556346  0.21391381  0.01763564     0.37100
C1839       C  0.72186673  0.25108017  0.03865029     0.36900
C1840       C  0.79370408  0.25248290  0.06285650     0.37600
N1841       N  0.72267726  0.27556016  0.96594874    -0.43200
N1842       N  0.77231030  0.20318043  0.02636749    -0.43600
N1843       N  0.80845459  0.25256984  0.06726100    -0.41000
N1844       N  0.70723071  0.25054915  0.03390873    -0.42400
H1845       H  0.73252714  0.25763452  0.07133881     0.13800
H1846       H  0.78277574  0.24652341  0.03024169     0.10200
H1847       H  0.73795589  0.26836796  0.00825237     0.11300
H1848       H  0.75968020  0.21124583  0.98330900     0.17100
C1849       C  0.13413906  0.23235352  0.68818557    -0.01100
C1850       C  0.14833873  0.24453738  0.68936324     0.07500
C1851       C  0.15020386  0.25507382  0.70460499    -0.07100
C1852       C  0.13874547  0.25297703  0.71907048     0.04900
C1853       C  0.12499896  0.24003969  0.71837924    -0.14300
C1854       C  0.12264708  0.23015844  0.70264106    -0.07600
C1855       C  0.16210096  0.24594905  0.67539328     0.05900
C1856       C  0.16354461  0.26182807  0.66577305    -0.08700
C1857       C  0.17782231  0.26474666  0.65423283     0.00900
C1858       C  0.19110741  0.25149202  0.65218707     0.00700
C1859       C  0.18913206  0.23526308  0.66134130    -0.12300
C1860       C  0.17487017  0.23245944  0.67294679     0.01200
C1861       C  0.17884271  0.28188758  0.64556006     0.40500
C1862       C  0.17422356  0.21612235  0.68307641     0.37100
C1863       C  0.13124878  0.22189490  0.67234281     0.36900
C1864       C  0.14210749  0.26371237  0.73464654     0.37600
N1865       N  0.17963598  0.29566986  0.63870059    -0.43200
N1866       N  0.17366226  0.20307374  0.69125239    -0.43600
N1867       N  0.14488167  0.27232926  0.74710093    -0.41000
N1868       N  0.12895322  0.21354984  0.65961476    -0.42400
H1869       H  0.11205066  0.22037413  0.70173447     0.13800
H1870       H  0.16109868  0.26454723  0.70543787     0.10200
H1871       H  0.15376696  0.27224857  0.66778631     0.11300
H1872       H  0.19915377  0.22497491  0.66003578     0.17100
C1873       C  0.83028259  0.31288321  0.76164532    -0.01100
C1874       C  0.83432232  0.32987130  0.76849961     0.07500
C1875       C  0.85134488  0.33334953  0.77520684    -0.07100
C1876       C  0.86417933  0.31987581  0.77583691     0.04900
C1877       C  0.85999335  0.30259307  0.76950873    -0.14300
C1878       C  0.84311514  0.29945639  0.76208513    -0.07600
C1879       C  0.82078459  0.34408482  0.76874076     0.05900
C1880       C  0.80700550  0.34313110  0.78120590    -0.08700
C1881       C  0.79254462  0.35480441  0.78028803     0.00900
C1882       C  0.79189800  0.36787377  0.76672324     0.00700
C1883       C  0.80641545  0.36948204  0.75504055    -0.12300
C1884       C  0.82065078  0.35757419  0.75579773     0.01200
C1885       C  0.77839654  0.35255031  0.79304850     0.40500
C1886       C  0.83425457  0.35852950  0.74231264     0.37100
C1887       C  0.81295217  0.30891834  0.75432070     0.36900
C1888       C  0.88145863  0.32419853  0.78304594     0.37600
N1889       N  0.76709157  0.35060477  0.80328771    -0.43200
N1890       N  0.84508422  0.35915457  0.73142524    -0.43600
N1891       N  0.89530285  0.32768206  0.78882926    -0.41000
N1892       N  0.79903863  0.30582519  0.74848596    -0.42400
H1893       H  0.83963648  0.28627286  0.75728541     0.13800
H1894       H  0.85448225  0.34653677  0.78023556     0.10200
H1895       H  0.80721638  0.33273480  0.79122288     0.11300
H1896       H  0.80614850  0.37930747  0.74447849     0.17100
C1897       C  0.85282755  0.18554066  0.74922817    -0.01100
C1898       C  0.85840018  0.17043268  0.75884711     0.07500
C1899       C  0.87429122  0.17114781  0.76853609    -0.07100
C1900       C  0.88361405  0.18719662  0.77035103     0.04900
C1901       C  0.87684741  0.20293107  0.76247754    -0.14300
C1902       C  0.86209941  0.20162795  0.75105434    -0.07600
C1903       C  0.84629108  0.15508897  0.76149920     0.05900
C1904       C  0.84228990  0.14368395  0.74727803    -0.08700
C1905       C  0.82898980  0.13065734  0.74892484     0.00900
C1906       C  0.81948007  0.12907614  0.76502824     0.00700
C1907       C  0.82405807  0.14002058  0.77942073    -0.12300
C1908       C  0.83736233  0.15289487  0.77782688     0.01200
C1909       C  0.82441645  0.12013742  0.73351865     0.40500
C1910       C  0.84088235  0.16439423  0.79283290     0.37100
C1911       C  0.83677679  0.18526030  0.73867036     0.36900
C1912       C  0.89962009  0.18719099  0.78097228     0.37600
N1913       N  0.82071223  0.11174879  0.72114942    -0.43200
N1914       N  0.84371851  0.17358523  0.80485754    -0.43600
N1915       N  0.91245807  0.18713431  0.78946736    -0.41000
N1916       N  0.82393602  0.18499624  0.73018343    -0.42400
H1917       H  0.85691750  0.21346927  0.74464266     0.13800
H1918       H  0.87877358  0.15940452  0.77563346     0.10200
H1919       H  0.84907607  0.14544971  0.73469151     0.11300
H1920       H  0.81678720  0.13889979  0.79181825     0.17100
C1921       C  0.80627154  0.26298795  0.87232621    -0.01100
C1922       C  0.82257530  0.25419661  0.87483399     0.07500
C1923       C  0.82512665  0.24362965  0.88991486    -0.07100
C1924       C  0.81111494  0.24040792  0.90170298     0.04900
C1925       C  0.79402488  0.24752009  0.89809071    -0.14300
C1926       C  0.79212884  0.25957152  0.88388900    -0.07600
C1927       C  0.83584889  0.25340279  0.86044693     0.05900
C1928       C  0.84925222  0.26632709  0.85935344    -0.08700
C1929       C  0.86131900  0.26624772  0.84517197     0.00900
C1930       C  0.86007360  0.25287814  0.83194769     0.00700
C1931       C  0.84675573  0.23980515  0.83336551    -0.12300
C1932       C  0.83466382  0.24001830  0.84738898     0.01200
C1933       C  0.87401938  0.28064997  0.84396611     0.40500
C1934       C  0.82077056  0.22668609  0.84784658     0.37100
C1935       C  0.80350894  0.27472161  0.85737417     0.36900
C1936       C  0.81462806  0.22917937  0.91687571     0.37600
N1937       N  0.88412748  0.29225461  0.84292660    -0.43200
N1938       N  0.80958450  0.21607553  0.84820212    -0.43600
N1939       N  0.81756430  0.22024862  0.92906094    -0.41000
N1940       N  0.80138209  0.28419277  0.84543082    -0.42400
H1941       H  0.77930898  0.26556693  0.88114820     0.13800
H1942       H  0.83783314  0.23711678  0.89194782     0.10200
H1943       H  0.84997242  0.27673476  0.86933223     0.11300
H1944       H  0.84554136  0.22953971  0.82327954     0.17100
C1945       C  0.97267479  0.25418088  0.75701172    -0.01100
C1946       C  0.98399136  0.25010991  0.77138778     0.07500
C1947       C  0.97720549  0.25059460  0.78871606    -0.07100
C1948       C  0.95918889  0.25396798  0.79183617     0.04900
C1949       C  0.94752028  0.25687339  0.77732965    -0.14300
C1950       C  0.95463622  0.25748699  0.76006903    -0.07600
C1951       C  0.00284217  0.24495230  0.76866525     0.05900
C1952       C  0.01455659  0.25711207  0.76075268    -0.08700
C1953       C  0.03250756  0.25290011  0.75831528     0.00900
C1954       C  0.03913802  0.23619140  0.76409896     0.00700
C1955       C  0.02722156  0.22390847  0.77170534    -0.12300
C1956       C  0.00925944  0.22813574  0.77402561     0.01200
C1957       C  0.04364325  0.26609246  0.74985305     0.40500
C1958       C  0.99764391  0.21494934  0.78185824     0.37100
C1959       C  0.97907362  0.25432316  0.73893648     0.36900
C1960       C  0.95318771  0.25417955  0.81005315     0.37600
N1961       N  0.05248096  0.27672031  0.74303839    -0.43200
N1962       N  0.98832886  0.20442450  0.78818019    -0.43600
N1963       N  0.94843613  0.25437284  0.82466923    -0.41000
N1964       N  0.98422381  0.25454958  0.72445992    -0.42400
H1965       H  0.94598685  0.25990440  0.74879146     0.13800
H1966       H  0.98600785  0.24801184  0.79984641     0.10200
H1967       H  0.00966490  0.27005477  0.75661872     0.11300
H1968       H  0.03197536  0.21103729  0.77618732     0.17100
C1969       C  0.35361060  0.24193304  0.19487371    -0.01100
C1970       C  0.33587199  0.23707701  0.19831568     0.07500
C1971       C  0.33027539  0.23467587  0.21588542    -0.07100
C1972       C  0.34176096  0.23813050  0.23010369     0.04900
C1973       C  0.35927663  0.24430547  0.22675127    -0.14300
C1974       C  0.36513243  0.24551004  0.20903971    -0.07600
C1975       C  0.32267783  0.23510203  0.18386602     0.05900
C1976       C  0.32392460  0.22053572  0.17233669    -0.08700
C1977       C  0.31093320  0.21751845  0.15935398     0.00900
C1978       C  0.29633986  0.22933885  0.15777300     0.00700
C1979       C  0.29549926  0.24425117  0.16902477    -0.12300
C1980       C  0.30851305  0.24721817  0.18197017     0.01200
C1981       C  0.31247720  0.20162376  0.14865385     0.40500
C1982       C  0.30705616  0.26275404  0.19320270     0.37100
C1983       C  0.35998478  0.24425609  0.17694101     0.36900
C1984       C  0.33479910  0.23593534  0.24784579     0.37600
N1985       N  0.31373023  0.18884943  0.14013678    -0.43200
N1986       N  0.30590910  0.27520748  0.20219273    -0.43600
N1987       N  0.32911749  0.23413180  0.26201598    -0.41000
N1988       N  0.36507522  0.24609979  0.16255784    -0.42400
H1989       H  0.37854720  0.24998521  0.20617825     0.13800
H1990       H  0.31667657  0.23056921  0.21848060     0.10200
H1991       H  0.33482018  0.21120315  0.17385830     0.11300
H1992       H  0.28446866  0.25347609  0.16793266     0.17100
C1993       C  0.21795508  0.32438992  0.87520164    -0.01100
C1994       C  0.23563711  0.32757891  0.86992653     0.07500
C1995       C  0.24946434  0.31801237  0.87797815    -0.07100
C1996       C  0.24584993  0.30484642  0.89068056     0.04900
C1997       C  0.22810260  0.30144065  0.89583017    -0.14300
C1998       C  0.21436246  0.31161379  0.88825540    -0.07600
C1999       C  0.23996174  0.33994734  0.85521020     0.05900
C2000       C  0.24786909  0.35642813  0.85903399    -0.08700
C2001       C  0.25316580  0.36795122  0.84534289     0.00900
C2002       C  0.25060388  0.36290877  0.82736150     0.00700
C2003       C  0.24222789  0.34652157  0.82371042    -0.12300
C2004       C  0.23701596  0.33505930  0.83739474     0.01200
C2005       C  0.26119114  0.38473931  0.85025935     0.40500
C2006       C  0.22930180  0.31801627  0.83283544     0.37100
C2007       C  0.20326355  0.33356926  0.86692242     0.36900
C2008       C  0.26056531  0.29500415  0.89808874     0.37600
N2009       N  0.26759815  0.39817635  0.85431822    -0.43200
N2010       N  0.22314156  0.30434724  0.82920092    -0.43600
N2011       N  0.27237754  0.28708674  0.90396541    -0.41000
N2012       N  0.19145790  0.34077861  0.86018468    -0.42400
H2013       H  0.20065045  0.30898422  0.89190495     0.13800
H2014       H  0.26308051  0.32043972  0.87387045     0.10200
H2015       H  0.25008038  0.36019655  0.87277931     0.11300
H2016       H  0.24022038  0.34231186  0.81006818     0.17100
C2017       C  0.14178973  0.26975831  0.87571359    -0.01100
C2018       C  0.13632703  0.25362877  0.86771739     0.07500
C2019       C  0.14239782  0.23744055  0.87477576    -0.07100
C2020       C  0.15457981  0.23711263  0.88879667     0.04900
C2021       C  0.16104691  0.25325418  0.89599755    -0.14300
C2022       C  0.15398660  0.26945338  0.88982965    -0.07600
C2023       C  0.12624938  0.25316687  0.85071487     0.05900
C2024       C  0.13380624  0.26125284  0.83569520    -0.08700
C2025       C  0.12673188  0.25844490  0.81870998     0.00900
C2026       C  0.11175320  0.24718080  0.81650744     0.00700
C2027       C  0.10352953  0.24009828  0.83174521    -0.12300
C2028       C  0.11065855  0.24289503  0.84868695     0.01200
C2029       C  0.13563661  0.26677862  0.80388646     0.40500
C2030       C  0.10208409  0.23454130  0.86369570     0.37100
C2031       C  0.13553713  0.28674655  0.86923714     0.36900
C2032       C  0.16055039  0.22000531  0.89522618     0.37600
N2033       N  0.14287803  0.27352311  0.79210449    -0.43200
N2034       N  0.09522904  0.22771931  0.87566034    -0.43600
N2035       N  0.16534939  0.20630658  0.90038598    -0.41000
N2036       N  0.13054677  0.30032726  0.86394600    -0.42400
H2037       H  0.15880848  0.28194366  0.89528132     0.13800
H2038       H  0.13831275  0.22497473  0.86869615     0.10200
H2039       H  0.14588885  0.26906545  0.83712608     0.11300
H2040       H  0.09191430  0.23159376  0.83041924     0.17100
C2041       C  0.23215409  0.22569861  0.04239697    -0.01100
C2042       C  0.23162551  0.24395456  0.03804388     0.07500
C2043       C  0.23706958  0.25655854  0.05068735    -0.07100
C2044       C  0.24290409  0.25124359  0.06755573     0.04900
C2045       C  0.24298458  0.23289880  0.07212947    -0.14300
C2046       C  0.23766263  0.22036505  0.05929789    -0.07600
C2047       C  0.22621539  0.24993147  0.02004421     0.05900
C2048       C  0.20905869  0.24593675  0.01386911    -0.08700
C2049       C  0.20428928  0.24904067  0.99614069     0.00900
C2050       C  0.21682365  0.25662227  0.98427097     0.00700
C2051       C  0.23363012  0.26160007  0.99089545    -0.12300
C2052       C  0.23842236  0.25822173  0.00852329     0.01200
C2053       C  0.18682232  0.24336118  0.99046725     0.40500
C2054       C  0.25634647  0.26228381  0.01415188     0.37100
C2055       C  0.22761196  0.21212354  0.02956030     0.36900
C2056       C  0.24872391  0.26497660  0.07970220     0.37600
N2057       N  0.17283489  0.23868205  0.98600966    -0.43200
N2058       N  0.27069777  0.26547629  0.01873522    -0.43600
N2059       N  0.25346938  0.27604259  0.08932765    -0.41000
N2060       N  0.22402449  0.20125181  0.01925211    -0.42400
H2061       H  0.23773796  0.20626111  0.06244414     0.13800
H2062       H  0.23685020  0.27060889  0.04729709     0.10200
H2063       H  0.19960221  0.23966375  0.02278286     0.11300
H2064       H  0.24342705  0.26745827  0.98208994     0.17100
C2065       C  0.63937853  0.17788125  0.29719138    -0.01100
C2066       C  0.64836344  0.17635148  0.28087025     0.07500
C2067       C  0.64418087  0.18814301  0.26704337    -0.07100
C2068       C  0.63190385  0.20194798  0.26955843     0.04900
C2069       C  0.62390163  0.20443091  0.28639894    -0.14300
C2070       C  0.62735182  0.19187040  0.29986931    -0.07600
C2071       C  0.66292888  0.16326073  0.27830520     0.05900
C2072       C  0.65887872  0.14515481  0.27599172    -0.08700
C2073       C  0.67238994  0.13262070  0.27298262     0.00900
C2074       C  0.69039052  0.13818059  0.27245880     0.00700
C2075       C  0.69435055  0.15626873  0.27539831    -0.12300
C2076       C  0.68085176  0.16877199  0.27811811     0.01200
C2077       C  0.66736665  0.11419501  0.27065302     0.40500
C2078       C  0.68571063  0.18725219  0.28049906     0.37100
C2079       C  0.64284604  0.16565833  0.31158778     0.36900
C2080       C  0.62773156  0.21320973  0.25457771     0.37600
N2081       N  0.66327726  0.09943292  0.26880749    -0.43200
N2082       N  0.68963286  0.20206003  0.28233330    -0.43600
N2083       N  0.62425575  0.22215218  0.24254340    -0.41000
N2084       N  0.64560257  0.15578196  0.32306604    -0.42400
H2085       H  0.62116378  0.19332271  0.31279061     0.13800
H2086       H  0.65077506  0.18670902  0.25431529     0.10200
H2087       H  0.64510026  0.14086227  0.27630075     0.11300
H2088       H  0.70803679  0.16083000  0.27494644     0.17100
C2089       C  0.75042391  0.16154865  0.18861330    -0.01100
C2090       C  0.73605102  0.16257399  0.17665039     0.07500
C2091       C  0.72282022  0.14938543  0.17707548    -0.07100
C2092       C  0.72315249  0.13591556  0.19008269     0.04900
C2093       C  0.73693449  0.13565921  0.20296563    -0.14300
C2094       C  0.75078175  0.14821483  0.20152492    -0.07600
C2095       C  0.73423738  0.17833886  0.16489322     0.05900
C2096       C  0.73953244  0.17724042  0.14708652    -0.08700
C2097       C  0.74248781  0.19278542  0.13711662     0.00900
C2098       C  0.74053849  0.20970813  0.14521482     0.00700
C2099       C  0.73322783  0.21061125  0.16234847    -0.12300
C2100       C  0.73004668  0.19511717  0.17216816     0.01200
C2101       C  0.74770457  0.19099696  0.11875353     0.40500
C2102       C  0.72367274  0.19675609  0.19018222     0.37100
C2103       C  0.76460982  0.17458037  0.18836485     0.36900
C2104       C  0.70884768  0.12306763  0.19023528     0.37600
N2105       N  0.75168085  0.18956770  0.10397568    -0.43200
N2106       N  0.71858092  0.19799332  0.20462649    -0.43600
N2107       N  0.69738279  0.11275249  0.19029068    -0.41000
N2108       N  0.77588835  0.18509601  0.18815790    -0.42400
H2109       H  0.76165800  0.14813682  0.21099664     0.13800
H2110       H  0.71186362  0.15004869  0.16772249     0.10200
H2111       H  0.74230348  0.16430814  0.14129676     0.11300
H2112       H  0.73120581  0.22345060  0.16863669     0.17100
C2113       C  0.74747899  0.81771514  0.36620662    -0.01100
C2114       C  0.74470757  0.83523915  0.37232302     0.07500
C2115       C  0.74252151  0.83830060  0.39055272    -0.07100
C2116       C  0.74205937  0.82404248  0.40259666     0.04900
C2117       C  0.74373447  0.80630930  0.39630154    -0.14300
C2118       C  0.74703003  0.80351861  0.37814446    -0.07600
C2119       C  0.74336969  0.85021001  0.35956394     0.05900
C2120       C  0.72974066  0.84976812  0.34684895    -0.08700
C2121       C  0.72984689  0.86138434  0.33233415     0.00900
C2122       C  0.74381048  0.87393815  0.33048360     0.00700
C2123       C  0.75646990  0.87543650  0.34422826    -0.12300
C2124       C  0.75636474  0.86369518  0.35867496     0.01200
C2125       C  0.71606507  0.85920697  0.31913342     0.40500
C2126       C  0.77036123  0.86500879  0.37176218     0.37100
C2127       C  0.75045834  0.81391106  0.34762893     0.36900
C2128       C  0.73929322  0.82808803  0.42113541     0.37600
N2129       N  0.70500617  0.85733572  0.30858574    -0.43200
N2130       N  0.78154317  0.86610377  0.38228522    -0.43600
N2131       N  0.73709171  0.83139700  0.43598615    -0.41000
N2132       N  0.75275110  0.81087667  0.33273650    -0.42400
H2133       H  0.74863801  0.79010022  0.37304815     0.13800
H2134       H  0.74060886  0.85181265  0.39529631     0.10200
H2135       H  0.71950565  0.83958769  0.34776519     0.11300
H2136       H  0.76709376  0.88518427  0.34325810     0.17100
C2137       C  0.72712855  0.85326560  0.21360613    -0.01100
C2138       C  0.72859487  0.86287881  0.19759224     0.07500
C2139       C  0.73108065  0.88137119  0.19813289    -0.07100
C2140       C  0.73320648  0.89020907  0.21441969     0.04900
C2141       C  0.73315603  0.88034626  0.23046641    -0.14300
C2142       C  0.72931905  0.86203030  0.22983167    -0.07600
C2143       C  0.72922967  0.85334799  0.18039879     0.05900
C2144       C  0.71348464  0.84641345  0.17322780    -0.08700
C2145       C  0.71398005  0.83378966  0.15952740     0.00900
C2146       C  0.73058595  0.82773419  0.15303399     0.00700
C2147       C  0.74622328  0.83599547  0.15918413    -0.12300
C2148       C  0.74565633  0.84874342  0.17272238     0.01200
C2149       C  0.69731221  0.82625472  0.15359855     0.40500
C2150       C  0.76217890  0.85592192  0.17946066     0.37100
C2151       C  0.72454063  0.83418093  0.21367279     0.36900
C2152       C  0.73544771  0.90931877  0.21422101     0.37600
N2153       N  0.68392973  0.82025302  0.14886546    -0.43200
N2154       N  0.77540196  0.86171657  0.18484753    -0.43600
N2155       N  0.73709690  0.92465481  0.21399314    -0.41000
N2156       N  0.72249438  0.81889182  0.21372420    -0.42400
H2157       H  0.72911830  0.85425920  0.24198289     0.13800
H2158       H  0.73189647  0.88880000  0.18579881     0.10200
H2159       H  0.70083917  0.85005764  0.17910895     0.11300
H2160       H  0.75904080  0.83169125  0.15419106     0.17100
C2161       C  0.83461799  0.86219030  0.28780450    -0.01100
C2162       C  0.83722253  0.84948700  0.27428164     0.07500
C2163       C  0.82514850  0.84866656  0.26009332    -0.07100
C2164       C  0.81022937  0.85973770  0.25953158     0.04900
C2165       C  0.80719667  0.87208724  0.27340634    -0.14300
C2166       C  0.81977667  0.87347266  0.28718935    -0.07600
C2167       C  0.85153256  0.83590147  0.27503154     0.05900
C2168       C  0.85040685  0.82226861  0.28771750    -0.08700
C2169       C  0.86090940  0.80691451  0.28628761     0.00900
C2170       C  0.87263859  0.80492947  0.27169727     0.00700
C2171       C  0.87494694  0.81946587  0.26008119    -0.12300
C2172       C  0.86456250  0.83484113  0.26167195     0.01200
C2173       C  0.85873033  0.79321997  0.29958044     0.40500
C2174       C  0.86706481  0.84917886  0.24912388     0.37100
C2175       C  0.84687455  0.86374788  0.30248624     0.36900
C2176       C  0.79826917  0.85798715  0.24458594     0.37600
N2177       N  0.85698562  0.78230677  0.31030538    -0.43200
N2178       N  0.86909477  0.86074965  0.23916387    -0.43600
N2179       N  0.78872665  0.85651288  0.23259470    -0.41000
N2180       N  0.85668476  0.86504301  0.31427370    -0.42400
H2181       H  0.81763042  0.88285823  0.29792803     0.13800
H2182       H  0.82712357  0.83890132  0.24964537     0.10200
H2183       H  0.84055142  0.82316569  0.29819386     0.11300
H2184       H  0.88420393  0.81850182  0.24909108     0.17100
C2185       C  0.75844428  0.98637588  0.27735000    -0.01100
C2186       C  0.74135052  0.99308195  0.27375697     0.07500
C2187       C  0.72680416  0.98141341  0.27332263    -0.07100
C2188       C  0.72914197  0.96308305  0.27589414     0.04900
C2189       C  0.74639044  0.95620629  0.27911683    -0.14300
C2190       C  0.76083466  0.96809517  0.28003034    -0.07600
C2191       C  0.73854151  0.01215304  0.26966023     0.05900
C2192       C  0.74382118  0.01865325  0.25304502    -0.08700
C2193       C  0.74206848  0.03673356  0.24880551     0.00900
C2194       C  0.73461833  0.04867124  0.26134080     0.00700
C2195       C  0.72920647  0.04195481  0.27795134    -0.12300
C2196       C  0.73117419  0.02389893  0.28218508     0.01200
C2197       C  0.74890543  0.04262616  0.23187527     0.40500
C2198       C  0.72620619  0.01781240  0.29968550     0.37100
C2199       C  0.77372282  0.99803087  0.27818665     0.36900
C2200       C  0.71374176  0.95167874  0.27412037     0.37600
N2201       N  0.75453772  0.04722984  0.21832659    -0.43200
N2202       N  0.72233667  0.01290661  0.31373436    -0.43600
N2203       N  0.70139598  0.94256241  0.27260931    -0.41000
N2204       N  0.78594190  0.00740956  0.27882859    -0.42400
H2205       H  0.77410905  0.96308187  0.28258732     0.13800
H2206       H  0.71365793  0.98661052  0.27046236     0.10200
H2207       H  0.74966616  0.00958055  0.24348130     0.11300
H2208       H  0.72367796  0.05087479  0.28782351     0.17100
C2209       C  0.80440686  0.24040558  0.36531118    -0.01100
C2210       C  0.82216211  0.24172254  0.37118462     0.07500
C2211       C  0.82565755  0.24515063  0.38913256    -0.07100
C2212       C  0.81174786  0.24838104  0.40104898     0.04900
C2213       C  0.79391824  0.24840137  0.39491582    -0.14300
C2214       C  0.79049264  0.24373603  0.37713903    -0.07600
C2215       C  0.83711704  0.24069644  0.35845817     0.05900
C2216       C  0.83849116  0.25386548  0.34533248    -0.08700
C2217       C  0.85100313  0.25249078  0.33169193     0.00900
C2218       C  0.86260438  0.23766101  0.33113840     0.00700
C2219       C  0.86199731  0.22517409  0.34510925    -0.12300
C2220       C  0.84933600  0.22653225  0.35864470     0.01200
C2221       C  0.85083272  0.26602943  0.31805894     0.40500
C2222       C  0.84839528  0.21265093  0.37189416     0.37100
C2223       C  0.80020324  0.23590656  0.34711465     0.36900
C2224       C  0.81627885  0.25178976  0.41937699     0.37600
N2225       N  0.85058366  0.27687111  0.30712677    -0.43200
N2226       N  0.84762387  0.20149896  0.38248464    -0.43600
N2227       N  0.81996465  0.25445952  0.43407007    -0.41000
N2228       N  0.79693167  0.23227969  0.33252716    -0.42400
H2229       H  0.77693431  0.24336584  0.37222218     0.13800
H2230       H  0.83932602  0.24584901  0.39371627     0.10200
H2231       H  0.82924357  0.26494566  0.34539366     0.11300
H2232       H  0.87083528  0.21377589  0.34502678     0.17100
C2233       C  0.86939276  0.24344528  0.20178947    -0.01100
C2234       C  0.85277862  0.25196398  0.20098411     0.07500
C2235       C  0.84488104  0.25806439  0.21670397    -0.07100
C2236       C  0.85273506  0.25476699  0.23326410     0.04900
C2237       C  0.86887740  0.24510060  0.23421028    -0.14300
C2238       C  0.87731920  0.24018307  0.21826896    -0.07600
C2239       C  0.84225061  0.25245532  0.18435224     0.05900
C2240       C  0.83529625  0.23636888  0.17789294    -0.08700
C2241       C  0.82279105  0.23621055  0.16413654     0.00900
C2242       C  0.81722002  0.25244416  0.15639343     0.00700
C2243       C  0.82526430  0.26844054  0.16199521    -0.12300
C2244       C  0.83751093  0.26857404  0.17605042     0.01200
C2245       C  0.81548914  0.21923497  0.15872398     0.40500
C2246       C  0.84452006  0.28540323  0.18221020     0.37100
C2247       C  0.87832141  0.23751148  0.18590010     0.36900
C2248       C  0.84350627  0.26090890  0.24891380     0.37600
N2249       N  0.80960229  0.20561588  0.15449197    -0.43200
N2250       N  0.85011180  0.29888119  0.18721325    -0.43600
N2251       N  0.83602016  0.26588849  0.26138034    -0.41000
N2252       N  0.88554092  0.23275732  0.17319725    -0.42400
H2253       H  0.88984889  0.23306346  0.21862615     0.13800
H2254       H  0.83206979  0.26466935  0.21607579     0.10200
H2255       H  0.83897342  0.22394042  0.18426677     0.11300
H2256       H  0.82111912  0.28100041  0.15621325     0.17100
C2257       C  0.80635287  0.14050252  0.28693297    -0.01100
C2258       C  0.82148363  0.13308040  0.27878158     0.07500
C2259       C  0.81994638  0.11691311  0.26961411    -0.07100
C2260       C  0.80328277  0.10886197  0.26722581     0.04900
C2261       C  0.78780486  0.11729537  0.27383449    -0.14300
C2262       C  0.78970972  0.13254698  0.28448911    -0.07600
C2263       C  0.83816707  0.14349569  0.27758897     0.05900
C2264       C  0.84863569  0.14589968  0.29280130    -0.08700
C2265       C  0.86196891  0.15897513  0.29325026     0.00900
C2266       C  0.86468889  0.17011646  0.27828359     0.00700
C2267       C  0.85523856  0.16644458  0.26256501    -0.12300
C2268       C  0.84209249  0.15327102  0.26210685     0.01200
C2269       C  0.87175250  0.16127596  0.30960262     0.40500
C2270       C  0.83186145  0.15096136  0.24600441     0.37100
C2271       C  0.80736289  0.15710485  0.29660434     0.36900
C2272       C  0.80248210  0.09219495  0.25766797     0.37600
N2273       N  0.87959461  0.16301121  0.32273030    -0.43200
N2274       N  0.82366088  0.14905963  0.23312022    -0.43600
N2275       N  0.80190089  0.07878269  0.25009621    -0.41000
N2276       N  0.80821823  0.17041936  0.30431757    -0.42400
H2277       H  0.77804267  0.13905434  0.28987511     0.13800
H2278       H  0.83165765  0.11104399  0.26361641     0.10200
H2279       H  0.84570128  0.13821983  0.30465480     0.11300
H2280       H  0.85737677  0.17456605  0.25083652     0.17100
C2281       C  0.14839762  0.30519389  0.28699139    -0.01100
C2282       C  0.14481351  0.32118688  0.27788956     0.07500
C2283       C  0.12905859  0.32278705  0.26812989    -0.07100
C2284       C  0.11738992  0.30829943  0.26638818     0.04900
C2285       C  0.12166462  0.29168470  0.27429839    -0.14300
C2286       C  0.13689154  0.29061946  0.28512326    -0.07600
C2287       C  0.15803811  0.33582727  0.27741740     0.05900
C2288       C  0.17219259  0.33463032  0.26541251    -0.08700
C2289       C  0.18603408  0.34714848  0.26561916     0.00900
C2290       C  0.18608571  0.36095831  0.27847176     0.00700
C2291       C  0.17121331  0.36269059  0.28971549    -0.12300
C2292       C  0.15718891  0.35037475  0.28913976     0.01200
C2293       C  0.20003758  0.34517396  0.25267021     0.40500
C2294       C  0.14225849  0.35264942  0.30094110     0.37100
C2295       C  0.16404398  0.30334637  0.29797960     0.36900
C2296       C  0.10133125  0.31091727  0.25619718     0.37600
N2297       N  0.21114943  0.34360405  0.24216796    -0.43200
N2298       N  0.13020046  0.35452994  0.31028113    -0.43600
N2299       N  0.08843871  0.31310263  0.24808066    -0.41000
N2300       N  0.17652953  0.30191471  0.30686468    -0.42400
H2301       H  0.14029061  0.27814553  0.29154879     0.13800
H2302       H  0.12613590  0.33524885  0.26143882     0.10200
H2303       H  0.17257886  0.32363272  0.25606125     0.11300
H2304       H  0.17074762  0.37336793  0.29940777     0.17100
C2305       C  0.18591512  0.24691813  0.17380304    -0.01100
C2306       C  0.16989995  0.23795579  0.17005077     0.07500
C2307       C  0.16896889  0.22622687  0.15565403    -0.07100
C2308       C  0.18404619  0.22251473  0.14550152     0.04900
C2309       C  0.20046252  0.23087650  0.14968941    -0.14300
C2310       C  0.20096296  0.24349881  0.16350349    -0.07600
C2311       C  0.15506378  0.23808779  0.18278206     0.05900
C2312       C  0.14286838  0.25219006  0.18286166    -0.08700
C2313       C  0.12937975  0.25290902  0.19570375     0.00900
C2314       C  0.12812784  0.23925364  0.20859723     0.00700
C2315       C  0.13998053  0.22483734  0.20785472    -0.12300
C2316       C  0.15346494  0.22425924  0.19527560     0.01200
C2317       C  0.11778765  0.26820894  0.19590749     0.40500
C2318       C  0.16611573  0.20980918  0.19607188     0.37100
C2319       C  0.18756078  0.25861955  0.18895319     0.36900
C2320       C  0.18224593  0.20947116  0.13150598     0.37600
N2321       N  0.10855149  0.28052333  0.19600764    -0.43200
N2322       N  0.17630171  0.19829968  0.19683304    -0.43600
N2323       N  0.18065166  0.19893280  0.12038819    -0.41000
N2324       N  0.18895808  0.26791298  0.20114569    -0.42400
H2325       H  0.21336757  0.25005868  0.16692748     0.13800
H2326       H  0.15662423  0.21919598  0.15298424     0.10200
H2327       H  0.14419849  0.26282758  0.17319772     0.11300
H2328       H  0.13916609  0.21422253  0.21761376     0.17100
C2329       C  0.01517007  0.23835225  0.28415620    -0.01100
C2330       C  0.00334467  0.23504969  0.27007571     0.07500
C2331       C  0.00987556  0.23318511  0.25276717    -0.07100
C2332       C  0.02810895  0.23463702  0.24930433     0.04900
C2333       C  0.04009227  0.23816619  0.26344217    -0.14300
C2334       C  0.03333633  0.23993788  0.28077030    -0.07600
C2335       C  0.98411809  0.23305925  0.27331963     0.05900
C2336       C  0.97394779  0.24827364  0.27672142    -0.08700
C2337       C  0.95571089  0.24690260  0.28014071     0.00900
C2338       C  0.94739128  0.22992097  0.28009533     0.00700
C2339       C  0.95785053  0.21471473  0.27697788    -0.12300
C2340       C  0.97603938  0.21616440  0.27362520     0.01200
C2341       C  0.94608071  0.26317425  0.28353187     0.40500
C2342       C  0.98622478  0.20012807  0.27079549     0.37100
C2343       C  0.00896745  0.23966631  0.30225210     0.36900
C2344       C  0.03399433  0.23196770  0.23124539     0.37600
N2345       N  0.93851558  0.27630245  0.28627023    -0.43200
N2346       N  0.99439783  0.18727616  0.26857648    -0.43600
N2347       N  0.03860883  0.22974477  0.21675292    -0.41000
N2348       N  0.00394617  0.24063225  0.31674093    -0.42400
H2349       H  0.04225964  0.24247755  0.29180990     0.13800
H2350       H  0.00068708  0.23043793  0.24198101     0.10200
H2351       H  0.98032057  0.26126375  0.27667779     0.11300
H2352       H  0.95181496  0.20157472  0.27699950     0.17100
C2353       C  0.21555636  0.85525138  0.70162024    -0.01100
C2354       C  0.23071852  0.84433185  0.70100100     0.07500
C2355       C  0.24332266  0.84533044  0.71468530    -0.07100
C2356       C  0.24052111  0.85634570  0.72944930     0.04900
C2357       C  0.22479628  0.86663275  0.73060107    -0.14300
C2358       C  0.21275840  0.86634024  0.71627812    -0.07600
C2359       C  0.23290278  0.83070798  0.68697188     0.05900
C2360       C  0.24498412  0.83366199  0.67313956    -0.08700
C2361       C  0.24790893  0.82059007  0.66015760     0.00900
C2362       C  0.23847683  0.80422267  0.66091478     0.00700
C2363       C  0.22599946  0.80164325  0.67457243    -0.12300
C2364       C  0.22333624  0.81457683  0.68763550     0.01200
C2365       C  0.26077163  0.82435373  0.64643248     0.40500
C2366       C  0.21140358  0.81062474  0.70213629     0.37100
C2367       C  0.20244403  0.85485362  0.68759784     0.36900
C2368       C  0.25397320  0.85669565  0.74314689     0.37600
N2369       N  0.27113104  0.82745071  0.63549736    -0.43200
N2370       N  0.20194963  0.80738810  0.71382018    -0.43600
N2371       N  0.26485574  0.85694523  0.75402931    -0.41000
N2372       N  0.19194826  0.85450572  0.67634799    -0.42400
H2373       H  0.20067515  0.87417711  0.71685185     0.13800
H2374       H  0.25509354  0.83702176  0.71409295     0.10200
H2375       H  0.25232627  0.84611536  0.67265377     0.11300
H2376       H  0.21885529  0.78911181  0.67559088     0.17100
C2377       C  0.32260769  0.13261040  0.80732389    -0.01100
C2378       C  0.32394421  0.14241439  0.79143465     0.07500
C2379       C  0.31114507  0.14005166  0.77810000    -0.07100
C2380       C  0.29636246  0.12908126  0.78088133     0.04900
C2381       C  0.29431424  0.12014804  0.79729321    -0.14300
C2382       C  0.30790172  0.12150692  0.81010001    -0.07600
C2383       C  0.33764726  0.15633632  0.78887124     0.05900
C2384       C  0.35030237  0.15416578  0.77544356    -0.08700
C2385       C  0.36207951  0.16795831  0.77111999     0.00900
C2386       C  0.36124425  0.18439191  0.78040401     0.00700
C2387       C  0.34888970  0.18621415  0.79428625    -0.12300
C2388       C  0.33705634  0.17245274  0.79845536     0.01200
C2389       C  0.37448250  0.16486084  0.75682603     0.40500
C2390       C  0.32371680  0.17556126  0.81188951     0.37100
C2391       C  0.33585189  0.13421539  0.82114623     0.36900
C2392       C  0.28342612  0.12753859  0.76677024     0.37600
N2393       N  0.38435963  0.16232157  0.74532931    -0.43200
N2394       N  0.31299582  0.17800412  0.82262439    -0.43600
N2395       N  0.27306101  0.12633468  0.75545392    -0.41000
N2396       N  0.34644173  0.13557969  0.83223464    -0.42400
H2397       H  0.30662643  0.11461389  0.82269694     0.13800
H2398       H  0.31232877  0.14742346  0.76575898     0.10200
H2399       H  0.35065168  0.14178226  0.76800971     0.11300
H2400       H  0.34792863  0.19869805  0.80147393     0.17100
C2401       C  0.17994012  0.13787308  0.77435810    -0.01100
C2402       C  0.16377160  0.13480731  0.78336220     0.07500
C2403       C  0.16286856  0.12109445  0.79596589    -0.07100
C2404       C  0.17803229  0.11136085  0.80065584     0.04900
C2405       C  0.19465063  0.11545308  0.79272595    -0.14300
C2406       C  0.19515850  0.12827854  0.77911721    -0.07600
C2407       C  0.14831997  0.14692875  0.78108782     0.05900
C2408       C  0.14023494  0.14868141  0.76434991    -0.08700
C2409       C  0.12746664  0.16193162  0.76121310     0.00900
C2410       C  0.12271496  0.17374936  0.77502402     0.00700
C2411       C  0.12995565  0.17114485  0.79202734    -0.12300
C2412       C  0.14254918  0.15787123  0.79519008     0.01200
C2413       C  0.12046836  0.16383666  0.74345743     0.40500
C2414       C  0.15001311  0.15645120  0.81283038     0.37100
C2415       C  0.18151516  0.15140492  0.76080541     0.36900
C2416       C  0.17604073  0.09759205  0.81391066     0.37600
N2417       N  0.11488606  0.16529525  0.72919915    -0.43200
N2418       N  0.15584705  0.15529178  0.82701694    -0.43600
N2419       N  0.17435092  0.08652750  0.82448995    -0.41000
N2420       N  0.18277218  0.16213872  0.74983794    -0.42400
H2421       H  0.20764419  0.13138878  0.77261645     0.13800
H2422       H  0.15035411  0.11841385  0.80261628     0.10200
H2423       H  0.14444155  0.14012661  0.75353641     0.11300
H2424       H  0.12624969  0.17999047  0.80280318     0.17100
C2425       C  0.22658649  0.14792245  0.88119443    -0.01100
C2426       C  0.24243728  0.15406281  0.88913873     0.07500
C2427       C  0.25849029  0.14532287  0.88542568    -0.07100
C2428       C  0.25905854  0.13131328  0.87305865     0.04900
C2429       C  0.24330114  0.12593484  0.86426513    -0.14300
C2430       C  0.22713530  0.13396823  0.86894282    -0.07600
C2431       C  0.24252940  0.17118654  0.89898152     0.05900
C2432       C  0.23419071  0.17220226  0.91559158    -0.08700
C2433       C  0.23002644  0.18876340  0.92312093     0.00900
C2434       C  0.23403618  0.20465883  0.91378874     0.00700
C2435       C  0.24387785  0.20354407  0.89797984    -0.12300
C2436       C  0.24807899  0.18700528  0.89052267     0.01200
C2437       C  0.22143916  0.18899813  0.94026489     0.40500
C2438       C  0.25678281  0.18659850  0.87343705     0.37100
C2439       C  0.20982404  0.15678631  0.88422223     0.36900
C2440       C  0.27615618  0.12399033  0.86837297     0.37600
N2441       N  0.21465750  0.18916594  0.95405578    -0.43200
N2442       N  0.26374028  0.18620482  0.85974210    -0.43600
N2443       N  0.28988400  0.11820614  0.86456205    -0.41000
N2444       N  0.19645289  0.16398961  0.88662604    -0.42400
H2445       H  0.21497101  0.12998709  0.86224271     0.13800
H2446       H  0.27072007  0.15016272  0.89139091     0.10200
H2447       H  0.23011719  0.16003218  0.92222725     0.11300
H2448       H  0.24729073  0.21558606  0.89077475     0.17100
C2449       C  0.23887702  0.97159236  0.79058454    -0.01100
C2450       C  0.22576974  0.98495532  0.79114901     0.07500
C2451       C  0.20801559  0.98039889  0.78750223    -0.07100
C2452       C  0.20313686  0.96273107  0.78374429     0.04900
C2453       C  0.21622198  0.94920407  0.78360328    -0.14300
C2454       C  0.23405602  0.95398233  0.78680194    -0.07600
C2455       C  0.23034057  0.00369683  0.79570175     0.05900
C2456       C  0.24198198  0.01326441  0.78467969    -0.08700
C2457       C  0.24673665  0.03089407  0.78863388     0.00900
C2458       C  0.23950257  0.03938291  0.80378465     0.00700
C2459       C  0.22811509  0.02962701  0.81494004    -0.12300
C2460       C  0.22354758  0.01197009  0.81106808     0.01200
C2461       C  0.25946402  0.03963459  0.77720131     0.40500
C2462       C  0.21217373  0.00251323  0.82330712     0.37100
C2463       C  0.25728552  0.97550038  0.79450316     0.36900
C2464       C  0.18470479  0.95904031  0.77980271     0.37600
N2465       N  0.26977283  0.04649562  0.76805570    -0.43200
N2466       N  0.20309292  0.99498754  0.83319362    -0.43600
N2467       N  0.16991854  0.95617747  0.77658686    -0.41000
N2468       N  0.27202672  0.97867641  0.79762765    -0.42400
H2469       H  0.24429931  0.94384435  0.78682414     0.13800
H2470       H  0.19793287  0.99070397  0.78764359     0.10200
H2471       H  0.24742069  0.00688381  0.77296209     0.11300
H2472       H  0.22249266  0.03588725  0.82663275     0.17100
C2473       C  0.15331836  0.67451266  0.76657346    -0.01100
C2474       C  0.15299883  0.65748382  0.77436408     0.07500
C2475       C  0.13911649  0.65275734  0.78576263    -0.07100
C2476       C  0.12605326  0.66514190  0.79035183     0.04900
C2477       C  0.12697015  0.68274070  0.78352765    -0.14300
C2478       C  0.14030150  0.68694910  0.77110803    -0.07600
C2479       C  0.16792607  0.64503954  0.77207144     0.05900
C2480       C  0.18103130  0.64441179  0.78529828    -0.08700
C2481       C  0.19618582  0.63387580  0.78316566     0.00900
C2482       C  0.19810674  0.62342113  0.76767959     0.00700
C2483       C  0.18456910  0.62367168  0.75474301    -0.12300
C2484       C  0.16967020  0.63456113  0.75671815     0.01200
C2485       C  0.20952982  0.63424161  0.79696768     0.40500
C2486       C  0.15666403  0.63527910  0.74260673     0.37100
C2487       C  0.16747309  0.67980259  0.75472726     0.36900
C2488       C  0.11237779  0.65946516  0.80256862     0.37600
N2489       N  0.22023018  0.63464475  0.80802498    -0.43200
N2490       N  0.14630112  0.63597516  0.73125109    -0.43600
N2491       N  0.10146457  0.65484014  0.81237629    -0.41000
N2492       N  0.17885650  0.68398885  0.74526693    -0.42400
H2493       H  0.14116602  0.70027831  0.76559889     0.13800
H2494       H  0.13886360  0.63952312  0.79157206     0.10200
H2495       H  0.17962013  0.65258786  0.79710040     0.11300
H2496       H  0.18597601  0.61595030  0.74264553     0.17100
C2497       C  0.14001714  0.83861057  0.76217381    -0.01100
C2498       C  0.13252357  0.83200769  0.77808996     0.07500
C2499       C  0.13571694  0.84131195  0.79397854    -0.07100
C2500       C  0.14724986  0.85598776  0.79446957     0.04900
C2501       C  0.15596293  0.86163768  0.77882875    -0.14300
C2502       C  0.15151334  0.85337139  0.76264783    -0.07600
C2503       C  0.12371940  0.81416174  0.77911201     0.05900
C2504       C  0.13309180  0.79920707  0.77300432    -0.08700
C2505       C  0.12699251  0.78188264  0.77627585     0.00900
C2506       C  0.11150015  0.77915899  0.78658793     0.00700
C2507       C  0.10160641  0.79412729  0.79189996    -0.12300
C2508       C  0.10740034  0.81148087  0.78799946     0.01200
C2509       C  0.13746813  0.76726479  0.76955229     0.40500
C2510       C  0.09637283  0.82630507  0.79321510     0.37100
C2511       C  0.13682205  0.82994521  0.74533106     0.36900
C2512       C  0.15033868  0.86461079  0.81134234     0.37600
N2513       N  0.14582500  0.75558723  0.76402362    -0.43200
N2514       N  0.08745127  0.83815678  0.79730476    -0.43600
N2515       N  0.15280283  0.87152310  0.82486790    -0.41000
N2516       N  0.13438865  0.82288398  0.73187434    -0.42400
H2517       H  0.15798450  0.85761916  0.75049633     0.13800
H2518       H  0.13007529  0.83642516  0.80630163     0.10200
H2519       H  0.14571546  0.80102274  0.76627916     0.11300
H2520       H  0.08940307  0.79229497  0.79936394     0.17100
C2521       C  0.85690997  0.76744279  0.70541322    -0.01100
C2522       C  0.84207120  0.75599781  0.70569267     0.07500
C2523       C  0.83922480  0.74505593  0.72049833    -0.07100
C2524       C  0.85068470  0.74562080  0.73517205     0.04900
C2525       C  0.86551582  0.75730547  0.73513913    -0.14300
C2526       C  0.86853603  0.76792876  0.71998583    -0.07600
C2527       C  0.82905377  0.75531642  0.69088378     0.05900
C2528       C  0.83300360  0.74521888  0.67576525    -0.08700
C2529       C  0.82015637  0.74232698  0.66254142     0.00900
C2530       C  0.80288727  0.74969180  0.66436645     0.00700
C2531       C  0.79941863  0.76069173  0.67910579    -0.12300
C2532       C  0.81226919  0.76345288  0.69232316     0.01200
C2533       C  0.82509271  0.73146348  0.64751652     0.40500
C2534       C  0.80783671  0.77432998  0.70750141     0.37100
C2535       C  0.85998782  0.77935509  0.69067259     0.36900
C2536       C  0.84661985  0.73421548  0.75007516     0.37600
N2537       N  0.82915105  0.72273541  0.63551958    -0.43200
N2538       N  0.80433882  0.78304631  0.71968097    -0.43600
N2539       N  0.84326963  0.72509961  0.76201660    -0.41000
N2540       N  0.86238561  0.78899342  0.67891273    -0.42400
H2541       H  0.87967095  0.77713005  0.71971715     0.13800
H2542       H  0.82780383  0.73619823  0.72066905     0.10200
H2543       H  0.84599768  0.73907898  0.67459499     0.11300
H2544       H  0.78637259  0.76658596  0.68074626     0.17100
C2545       C  0.87021676  0.75611367  0.86399320    -0.01100
C2546       C  0.85559901  0.74435420  0.86428083     0.07500
C2547       C  0.85180449  0.73414800  0.84914337    -0.07100
C2548       C  0.86142642  0.73649862  0.83338218     0.04900
C2549       C  0.87509420  0.74950255  0.83252833    -0.14300
C2550       C  0.87980787  0.75859730  0.84823031    -0.07600
C2551       C  0.84232817  0.74469595  0.87888095     0.05900
C2552       C  0.83186282  0.76000779  0.88065667    -0.08700
C2553       C  0.81706663  0.76019338  0.89186368     0.00900
C2554       C  0.81258430  0.74485709  0.90184300     0.00700
C2555       C  0.82379565  0.72989053  0.90097376    -0.12300
C2556       C  0.83847165  0.72964074  0.88941883     0.01200
C2557       C  0.80645462  0.77619791  0.89246665     0.40500
C2558       C  0.84912460  0.71371551  0.88819776     0.37100
C2559       C  0.87530176  0.76605738  0.87962343     0.36900
C2560       C  0.85645351  0.72579418  0.81823032     0.37600
N2561       N  0.79785084  0.78895288  0.89289814    -0.43200
N2562       N  0.85770579  0.70097764  0.88716255    -0.43600
N2563       N  0.85246409  0.71716139  0.80611894    -0.41000
N2564       N  0.87943663  0.77392982  0.89219269    -0.42400
H2565       H  0.89052565  0.76829767  0.84805953     0.13800
H2566       H  0.84061978  0.72499090  0.84935168     0.10200
H2567       H  0.83476200  0.77160844  0.87254863     0.11300
H2568       H  0.82054421  0.71804061  0.90855632     0.17100
C2569       C  0.85408423  0.84077723  0.80271291    -0.01100
C2570       C  0.84565936  0.84721073  0.78724794     0.07500
C2571       C  0.85213601  0.84204927  0.77054720    -0.07100
C2572       C  0.86578918  0.82943386  0.76910601     0.04900
C2573       C  0.87322750  0.82184435  0.78464735    -0.14300
C2574       C  0.86776364  0.82828109  0.80130370    -0.07600
C2575       C  0.82909151  0.85790081  0.78835109     0.05900
C2576       C  0.82931327  0.87420791  0.79743605    -0.08700
C2577       C  0.81351003  0.88330499  0.80109872     0.00900
C2578       C  0.79705162  0.87626171  0.79516489     0.00700
C2579       C  0.79703401  0.86054695  0.78503606    -0.12300
C2580       C  0.81277069  0.85121999  0.78182917     0.01200
C2581       C  0.81465707  0.89954849  0.81132447     0.40500
C2582       C  0.81158218  0.83417315  0.77298216     0.37100
C2583       C  0.84809708  0.84571781  0.82026087     0.36900
C2584       C  0.87076847  0.82363006  0.75151251     0.37600
N2585       N  0.81562677  0.91250306  0.81961602    -0.43200
N2586       N  0.81054114  0.82049202  0.76595680    -0.43600
N2587       N  0.87467339  0.81902796  0.73737449    -0.41000
N2588       N  0.84334549  0.84971834  0.83431814    -0.42400
H2589       H  0.87341805  0.82275823  0.81330697     0.13800
H2590       H  0.84590068  0.84718769  0.75867151     0.10200
H2591       H  0.84185883  0.87948177  0.80231112     0.11300
H2592       H  0.78453564  0.85491228  0.78044705     0.17100
C2593       C  0.97225433  0.72766718  0.79172449    -0.01100
C2594       C  0.98681755  0.73939666  0.79063258     0.07500
C2595       C  0.98411370  0.75704569  0.78519181    -0.07100
C2596       C  0.96701383  0.76336009  0.78152544     0.04900
C2597       C  0.95220809  0.75186162  0.78341426    -0.14300
C2598       C  0.95512858  0.73393723  0.78810189    -0.07600
C2599       C  0.00499220  0.73371587  0.79545436     0.05900
C2600       C  0.01398901  0.72169770  0.78444471    -0.08700
C2601       C  0.03182188  0.71745843  0.78763886     0.00900
C2602       C  0.04086547  0.72538123  0.80214762     0.00700
C2603       C  0.03138530  0.73646320  0.81379172    -0.12300
C2604       C  0.01365959  0.74079236  0.81047826     0.01200
C2605       C  0.04044084  0.70514498  0.77570126     0.40500
C2606       C  0.00478105  0.75291042  0.82241957     0.37100
C2607       C  0.97452134  0.70938312  0.79725653     0.36900
C2608       C  0.96519226  0.78156557  0.77561475     0.37600
N2609       N  0.04727023  0.69525981  0.76609699    -0.43200
N2610       N  0.99773352  0.76268479  0.83197208    -0.43600
N2611       N  0.96384964  0.79614580  0.77079598    -0.41000
N2612       N  0.97643214  0.69474560  0.80169113    -0.42400
H2613       H  0.94395133  0.72491020  0.78957560     0.13800
H2614       H  0.99543034  0.76595768  0.78399024     0.10200
H2615       H  0.00720304  0.71605764  0.77301927     0.11300
H2616       H  0.03806231  0.74254376  0.82505488     0.17100
C2617       C  0.25269355  0.68484251  0.18634936    -0.01100
C2618       C  0.24325464  0.66864935  0.18541623     0.07500
C2619       C  0.23269410  0.66500563  0.17053086    -0.07100
C2620       C  0.23094064  0.67750786  0.15682628     0.04900
C2621       C  0.23968762  0.69422479  0.15809192    -0.14300
C2622       C  0.25083661  0.69745817  0.17278446    -0.07600
C2623       C  0.24431620  0.65527467  0.19982148     0.05900
C2624       C  0.23076218  0.65452526  0.21256998    -0.08700
C2625       C  0.23166091  0.64245210  0.22676909     0.00900
C2626       C  0.24627079  0.63066299  0.22815204     0.00700
C2627       C  0.25954816  0.63121247  0.21500063    -0.12300
C2628       C  0.25875500  0.64347828  0.20104433     0.01200
C2629       C  0.21740319  0.64248107  0.23959457     0.40500
C2630       C  0.27308739  0.64402500  0.18831492     0.37100
C2631       C  0.26404660  0.68893146  0.20129693     0.36900
C2632       C  0.22011025  0.67268943  0.14171217     0.37600
N2633       N  0.20595658  0.64257152  0.24985507    -0.43200
N2634       N  0.28459199  0.64458207  0.17813869    -0.43600
N2635       N  0.21148424  0.66872342  0.12959088    -0.41000
N2636       N  0.27319404  0.69218209  0.21324473    -0.42400
H2637       H  0.25770117  0.71012349  0.17402879     0.13800
H2638       H  0.22573676  0.65235023  0.16967438     0.10200
H2639       H  0.21960325  0.66360104  0.21155754     0.11300
H2640       H  0.27095467  0.62244843  0.21592305     0.17100
C2641       C  0.15133017  0.75653946  0.16699061    -0.01100
C2642       C  0.14387616  0.74030155  0.17281574     0.07500
C2643       C  0.14834297  0.72449351  0.16398805    -0.07100
C2644       C  0.16139150  0.72441661  0.15070259     0.04900
C2645       C  0.17027432  0.74048298  0.14616794    -0.14300
C2646       C  0.16427531  0.75651597  0.15369540    -0.07600
C2647       C  0.13330763  0.73952065  0.18944480     0.05900
C2648       C  0.11693996  0.74834232  0.19027303    -0.08700
C2649       C  0.10838796  0.75099309  0.20657098     0.00900
C2650       C  0.11634749  0.74483444  0.22248975     0.00700
C2651       C  0.13196794  0.73464584  0.22138464    -0.12300
C2652       C  0.14048324  0.73198678  0.20506245     0.01200
C2653       C  0.09163653  0.76034778  0.20652329     0.40500
C2654       C  0.15721896  0.72256962  0.20484363     0.37100
C2655       C  0.14713995  0.77322995  0.17556106     0.36900
C2656       C  0.16602202  0.70749948  0.14284115     0.37600
N2657       N  0.07818758  0.76780967  0.20646954    -0.43200
N2658       N  0.17060707  0.71500108  0.20456760    -0.43600
N2659       N  0.16968792  0.69391067  0.13657973    -0.41000
N2660       N  0.14381050  0.78659983  0.18244125    -0.42400
H2661       H  0.17066988  0.76901239  0.15021537     0.13800
H2662       H  0.14234021  0.71203183  0.16821258     0.10200
H2663       H  0.11123478  0.75385399  0.17822918     0.11300
H2664       H  0.13816512  0.72965281  0.23340719     0.17100
C2665       C  0.33956761  0.75196566  0.83363415    -0.01100
C2666       C  0.34450164  0.74448632  0.85007823     0.07500
C2667       C  0.36107735  0.73623684  0.85183336    -0.07100
C2668       C  0.37271536  0.73515890  0.83735748     0.04900
C2669       C  0.36765885  0.74233615  0.82067240    -0.14300
C2670       C  0.35114436  0.75094120  0.81916979    -0.07600
C2671       C  0.33233331  0.74518168  0.86548333     0.05900
C2672       C  0.32317880  0.72971457  0.87057324    -0.08700
C2673       C  0.30958478  0.73046681  0.88327813     0.00900
C2674       C  0.30506785  0.74699032  0.89111855     0.00700
C2675       C  0.31519902  0.76218071  0.88680788    -0.12300
C2676       C  0.32866930  0.76139797  0.87407984     0.01200
C2677       C  0.30042741  0.71415484  0.88777531     0.40500
C2678       C  0.33815757  0.77752054  0.86953043     0.37100
C2679       C  0.32240460  0.76022651  0.83118320     0.36900
C2680       C  0.38972901  0.72671775  0.84013560     0.37600
N2681       N  0.29312352  0.70105663  0.89138288    -0.43200
N2682       N  0.34576469  0.79039509  0.86576039    -0.43600
N2683       N  0.40337080  0.71997169  0.84238788    -0.41000
N2684       N  0.30863285  0.76682554  0.82934230    -0.42400
H2685       H  0.34694512  0.75637182  0.80649316     0.13800
H2686       H  0.36490587  0.73062382  0.86455443     0.10200
H2687       H  0.32618811  0.71717585  0.86408696     0.11300
H2688       H  0.31208502  0.77494947  0.89277009     0.17100
C2689       C  0.18943095  0.71734521  0.88363520    -0.01100
C2690       C  0.17341783  0.72258173  0.89187495     0.07500
C2691       C  0.17411501  0.73065868  0.90865371    -0.07100
C2692       C  0.19042967  0.73524430  0.91640973     0.04900
C2693       C  0.20651895  0.73131303  0.90748314    -0.14300
C2694       C  0.20577306  0.72153331  0.89157787    -0.07600
C2695       C  0.15635729  0.72258407  0.88186332     0.05900
C2696       C  0.14907499  0.70650322  0.87561452    -0.08700
C2697       C  0.13508517  0.70652267  0.86323440     0.00900
C2698       C  0.12826762  0.72292524  0.85695358     0.00700
C2699       C  0.13460220  0.73885348  0.86437925    -0.12300
C2700       C  0.14848948  0.73883801  0.87667682     0.01200
C2701       C  0.12907634  0.68964709  0.85618323     0.40500
C2702       C  0.15533644  0.75582101  0.88263185     0.37100
C2703       C  0.18949962  0.70916476  0.86626379     0.36900
C2704       C  0.19013792  0.74466221  0.93313359     0.37600
N2705       N  0.12429084  0.67610775  0.85054420    -0.43200
N2706       N  0.16078569  0.76943888  0.88740427    -0.43600
N2707       N  0.18986191  0.75229790  0.94648703    -0.41000
N2708       N  0.18950882  0.70265280  0.85232788    -0.42400
H2709       H  0.21796044  0.71832795  0.88460208     0.13800
H2710       H  0.16182998  0.73449791  0.91513476     0.10200
H2711       H  0.15497346  0.69397118  0.87968821     0.11300
H2712       H  0.12931305  0.75150166  0.85982911     0.17100
C2713       C  0.25880605  0.83430073  0.88041273    -0.01100
C2714       C  0.24243654  0.83730980  0.87182419     0.07500
C2715       C  0.22791988  0.82616842  0.87549952    -0.07100
C2716       C  0.22978594  0.81146550  0.88671872     0.04900
C2717       C  0.24642666  0.80785892  0.89463505    -0.14300
C2718       C  0.26063429  0.81973931  0.89192623    -0.07600
C2719       C  0.24053021  0.85033530  0.85720649     0.05900
C2720       C  0.24804154  0.84612122  0.84074473    -0.08700
C2721       C  0.24344132  0.85562916  0.82544468     0.00900
C2722       C  0.23085749  0.86963767  0.82648865     0.00700
C2723       C  0.22449344  0.87470052  0.84334400    -0.12300
C2724       C  0.22925565  0.86518640  0.85863503     0.01200
C2725       C  0.25124515  0.84998810  0.80886627     0.40500
C2726       C  0.22219358  0.87057987  0.87562323     0.37100
C2727       C  0.27396542  0.84566191  0.87716915     0.36900
C2728       C  0.21449053  0.80016302  0.88968639     0.37600
N2729       N  0.25755914  0.84538981  0.79563212    -0.43200
N2730       N  0.21669496  0.87490298  0.88930721    -0.43600
N2731       N  0.20227912  0.79106506  0.89208433    -0.41000
N2732       N  0.28611125  0.85478434  0.87456237    -0.42400
H2733       H  0.27343999  0.81709752  0.89801120     0.13800
H2734       H  0.21530238  0.82849692  0.86889882     0.10200
H2735       H  0.25681364  0.83470120  0.83969122     0.11300
H2736       H  0.21522593  0.88569017  0.84454799     0.17100
C2737       C  0.23041444  0.74660114  0.03961899    -0.01100
C2738       C  0.24805651  0.74409376  0.03388276     0.07500
C2739       C  0.26114059  0.73941188  0.04625534    -0.07100
C2740       C  0.25698759  0.73749601  0.06428371     0.04900
C2741       C  0.23929650  0.74021163  0.07019998    -0.14300
C2742       C  0.22618131  0.74460288  0.05759382    -0.07600
C2743       C  0.25313461  0.74685122  0.01508335     0.05900
C2744       C  0.25228856  0.76408599  0.00800690    -0.08700
C2745       C  0.25554019  0.76715645  0.98998004     0.00900
C2746       C  0.25934406  0.75264285  0.97856936     0.00700
C2747       C  0.26131044  0.73555239  0.98599508    -0.12300
C2748       C  0.25834206  0.73259494  0.00411089     0.01200
C2749       C  0.25490445  0.78534040  0.98372420     0.40500
C2750       C  0.26002613  0.71472207  0.01099636     0.37100
C2751       C  0.21641901  0.75116680  0.02727310     0.36900
C2752       C  0.27133152  0.73320024  0.07628838     0.37600
N2753       N  0.25449777  0.79994233  0.97879178    -0.43200
N2754       N  0.26146800  0.70041356  0.01653705    -0.43600
N2755       N  0.28291596  0.72980576  0.08583174    -0.41000
N2756       N  0.20521921  0.75485135  0.01738384    -0.42400
H2757       H  0.21255218  0.74670080  0.06177401     0.13800
H2758       H  0.27473468  0.73757324  0.04182613     0.10200
H2759       H  0.24882865  0.77514978  0.01660009     0.11300
H2760       H  0.26451578  0.72431254  0.97754993     0.17100
C2761       C  0.23285514  0.13650945  0.35493319    -0.01100
C2762       C  0.24795791  0.14741230  0.35717629     0.07500
C2763       C  0.26252751  0.14516171  0.34577486    -0.07100
C2764       C  0.26177255  0.13316634  0.33149789     0.04900
C2765       C  0.24605609  0.12322187  0.32834706    -0.14300
C2766       C  0.23198848  0.12464929  0.34060823    -0.07600
C2767       C  0.24858945  0.16195121  0.37058753     0.05900
C2768       C  0.26144893  0.16135790  0.38405899    -0.08700
C2769       C  0.26386857  0.17575838  0.39568762     0.00900
C2770       C  0.25331317  0.19128912  0.39384368     0.00700
C2771       C  0.23991743  0.19147262  0.38078550    -0.12300
C2772       C  0.23756817  0.17708139  0.36915655     0.01200
C2773       C  0.27744341  0.17419333  0.40917755     0.40500
C2774       C  0.22445682  0.17859871  0.35519880     0.37100
C2775       C  0.21801331  0.13734985  0.36704987     0.36900
C2776       C  0.27729851  0.13153183  0.32037426     0.37600
N2777       N  0.28833463  0.17291174  0.41997666    -0.43200
N2778       N  0.21394554  0.17976995  0.34401905    -0.43600
N2779       N  0.28987604  0.13026544  0.31162814    -0.41000
N2780       N  0.20608239  0.13793746  0.37672124    -0.42400
H2781       H  0.21994454  0.11690349  0.33872470     0.13800
H2782       H  0.27434870  0.15324588  0.34771253     0.10200
H2783       H  0.26989370  0.14971369  0.38523955     0.11300
H2784       H  0.23171013  0.20321980  0.37910273     0.17100
C2785       C  0.27188660  0.14203765  0.16677416    -0.01100
C2786       C  0.25647417  0.13508020  0.17494717     0.07500
C2787       C  0.23974635  0.13959986  0.16802164    -0.07100
C2788       C  0.23813507  0.15207997  0.15435277     0.04900
C2789       C  0.25343157  0.16076578  0.14774702    -0.14300
C2790       C  0.27027699  0.15486311  0.15329732    -0.07600
C2791       C  0.25714140  0.12532983  0.19216166     0.05900
C2792       C  0.26468256  0.13396574  0.20692022    -0.08700
C2793       C  0.26250091  0.12722764  0.22414380     0.00900
C2794       C  0.25262709  0.11136653  0.22685719     0.00700
C2795       C  0.24603596  0.10219784  0.21190553    -0.12300
C2796       C  0.24811006  0.10905293  0.19473227     0.01200
C2797       C  0.26944332  0.13765914  0.23871755     0.40500
C2798       C  0.24027045  0.09948382  0.18002373     0.37100
C2799       C  0.28941881  0.13664797  0.17243171     0.36900
C2800       C  0.22055508  0.15622886  0.14781398     0.37600
N2801       N  0.27496590  0.14613606  0.25033444    -0.43200
N2802       N  0.23386200  0.09191019  0.16824401    -0.43600
N2803       N  0.20650370  0.15953160  0.14248173    -0.41000
N2804       N  0.30345467  0.13222930  0.17692619    -0.42400
H2805       H  0.28215891  0.16117364  0.14808826     0.13800
H2806       H  0.22780481  0.13418535  0.17402093     0.10200
H2807       H  0.27137626  0.14665927  0.20510396     0.11300
H2808       H  0.23857576  0.08993627  0.21364963     0.17100
C2809       C  0.14313328  0.17530454  0.28680143    -0.01100
C2810       C  0.13976068  0.16003667  0.27643985     0.07500
C2811       C  0.12456237  0.15942286  0.26569435    -0.07100
C2812       C  0.11336532  0.17425361  0.26422002     0.04900
C2813       C  0.11750206  0.19017619  0.27353557    -0.14300
C2814       C  0.13199861  0.19014772  0.28536186    -0.07600
C2815       C  0.15313327  0.14563800  0.27508655     0.05900
C2816       C  0.15567425  0.13398051  0.28941455    -0.08700
C2817       C  0.16998604  0.12203250  0.28957850     0.00900
C2818       C  0.18200595  0.12169032  0.27514602     0.00700
C2819       C  0.17891153  0.13286172  0.26049746    -0.12300
C2820       C  0.16464796  0.14476540  0.26035934     0.01200
C2821       C  0.17284079  0.11143815  0.30532922     0.40500
C2822       C  0.16275556  0.15676446  0.24546607     0.37100
C2823       C  0.15870570  0.17650852  0.29799383     0.36900
C2824       C  0.09812594  0.17281150  0.25261030     0.37600
N2825       N  0.17519111  0.10301868  0.31799328    -0.43200
N2826       N  0.16125157  0.16642172  0.23357441    -0.43600
N2827       N  0.08592159  0.17158541  0.24330261    -0.41000
N2828       N  0.17121982  0.17741983  0.30691307    -0.42400
H2829       H  0.13536413  0.20212299  0.29269747     0.13800
H2830       H  0.12187917  0.14758062  0.25786706     0.10200
H2831       H  0.14691726  0.13479514  0.30082231     0.11300
H2832       H  0.18805607  0.13275618  0.24936258     0.17100
C2833       C  0.31453661  0.83288382  0.30141415    -0.01100
C2834       C  0.33103848  0.83282567  0.29259970     0.07500
C2835       C  0.33524885  0.84676808  0.28099552    -0.07100
C2836       C  0.32276296  0.85998919  0.27700690     0.04900
C2837       C  0.30546103  0.85911747  0.28447022    -0.14300
C2838       C  0.30188085  0.84588979  0.29724253    -0.07600
C2839       C  0.34333646  0.81749565  0.29399972     0.05900
C2840       C  0.33814961  0.80120631  0.28648372    -0.08700
C2841       C  0.34913528  0.78621315  0.28750648     0.00900
C2842       C  0.36576906  0.78738903  0.29631933     0.00700
C2843       C  0.37112524  0.80397900  0.30330011    -0.12300
C2844       C  0.36007803  0.81893276  0.30222578     0.01200
C2845       C  0.34274419  0.76988286  0.27956455     0.40500
C2846       C  0.36585355  0.83539746  0.31031798     0.37100
C2847       C  0.31030396  0.81960359  0.31464558     0.36900
C2848       C  0.32803964  0.87382287  0.26475873     0.37600
N2849       N  0.33753196  0.75684821  0.27316987    -0.43200
N2850       N  0.37046596  0.84857610  0.31686206    -0.43600
N2851       N  0.33238442  0.88491712  0.25499568    -0.41000
N2852       N  0.30702426  0.80903854  0.32535812    -0.42400
H2853       H  0.28892658  0.84525101  0.30352433     0.13800
H2854       H  0.34811185  0.84691271  0.27448016     0.10200
H2855       H  0.32536240  0.80020435  0.27986229     0.11300
H2856       H  0.38375974  0.80520426  0.31014969     0.17100
C2857       C  0.19068898  0.84307653  0.28577381    -0.01100
C2858       C  0.17549629  0.84959831  0.27694586     0.07500
C2859       C  0.17650082  0.86580478  0.26779620    -0.07100
C2860       C  0.19263865  0.87500444  0.26633906     0.04900
C2861       C  0.20825791  0.86786189  0.27415797    -0.14300
C2862       C  0.20684458  0.85223210  0.28436840    -0.07600
C2863       C  0.15905299  0.83877361  0.27558543     0.05900
C2864       C  0.14921401  0.83500223  0.29093728    -0.08700
C2865       C  0.13514605  0.82273539  0.29049156     0.00900
C2866       C  0.13071845  0.81411206  0.27434850     0.00700
C2867       C  0.13988047  0.81885753  0.25879852    -0.12300
C2868       C  0.15399597  0.83097053  0.25930087     0.01200
C2869       C  0.12658495  0.81822728  0.30705434     0.40500
C2870       C  0.16393982  0.83411504  0.24318804     0.37100
C2871       C  0.19032474  0.82643977  0.29541969     0.36900
C2872       C  0.19267898  0.89135281  0.25621845     0.37600
N2873       N  0.11979970  0.81457718  0.32035984    -0.43200
N2874       N  0.17194511  0.83658171  0.23029871    -0.43600
N2875       N  0.19257662  0.90443976  0.24808314    -0.41000
N2876       N  0.19006409  0.81312258  0.30316853    -0.42400
H2877       H  0.21855883  0.84664521  0.29064063     0.13800
H2878       H  0.16474254  0.87091834  0.26118846     0.10200
H2879       H  0.15308813  0.84104348  0.30345361     0.11300
H2880       H  0.13661711  0.81237558  0.24632490     0.17100
C2881       C  0.24974361  0.80308743  0.18078841    -0.01100
C2882       C  0.25402135  0.81902210  0.17184859     0.07500
C2883       C  0.25442996  0.81919716  0.15323934    -0.07100
C2884       C  0.25028011  0.80377990  0.14347337     0.04900
C2885       C  0.24508427  0.78798932  0.15243759    -0.14300
C2886       C  0.24521140  0.78786451  0.17111111    -0.07600
C2887       C  0.25807851  0.83542138  0.18207361     0.05900
C2888       C  0.27413900  0.83633799  0.19144088    -0.08700
C2889       C  0.27683555  0.84922046  0.20462461     0.00900
C2890       C  0.26307335  0.86143073  0.20878510     0.00700
C2891       C  0.24768869  0.86150186  0.19809687    -0.12300
C2892       C  0.24513314  0.84866702  0.18480138     0.01200
C2893       C  0.29346837  0.84876630  0.21421850     0.40500
C2894       C  0.22867456  0.84865352  0.17490225     0.37100
C2895       C  0.24973797  0.80210060  0.19995858     0.36900
C2896       C  0.25208848  0.80444130  0.12439804     0.37600
N2897       N  0.30684408  0.84830169  0.22182577    -0.43200
N2898       N  0.21551471  0.84872339  0.16691576    -0.43600
N2899       N  0.25375461  0.80493078  0.10912390    -0.41000
N2900       N  0.24987810  0.80131258  0.21531033    -0.42400
H2901       H  0.24150387  0.77588652  0.17827776     0.13800
H2902       H  0.25813966  0.83134938  0.14636718     0.10200
H2903       H  0.28421034  0.82625855  0.18914135     0.11300
H2904       H  0.23713068  0.87095464  0.20077355     0.17100
C2905       C  0.26012121  0.97492179  0.25961002    -0.01100
C2906       C  0.25557655  0.98181617  0.27638720     0.07500
C2907       C  0.25415679  0.97024394  0.29091167    -0.07100
C2908       C  0.25695012  0.95188565  0.28889361     0.04900
C2909       C  0.26121070  0.94482064  0.27192829    -0.14300
C2910       C  0.26298517  0.95663996  0.25753515    -0.07600
C2911       C  0.25167299  0.00101185  0.27881343     0.05900
C2912       C  0.23395695  0.00641690  0.28070042    -0.08700
C2913       C  0.22953675  0.02453496  0.28163165     0.00900
C2914       C  0.24312936  0.03764524  0.28099142     0.00700
C2915       C  0.26092435  0.03203478  0.27963326    -0.12300
C2916       C  0.26524081  0.01394927  0.27839617     0.01200
C2917       C  0.21096105  0.02911477  0.28310580     0.40500
C2918       C  0.28366137  0.00896270  0.27640193     0.37100
C2919       C  0.26120433  0.98628446  0.24417163     0.36900
C2920       C  0.25488818  0.94075985  0.30441643     0.37600
N2921       N  0.19603286  0.03265465  0.28421412    -0.43200
N2922       N  0.29840747  0.00495076  0.27469531    -0.43600
N2923       N  0.25318830  0.93191989  0.31690312    -0.41000
N2924       N  0.26202546  0.99539985  0.23180184    -0.42400
H2925       H  0.26615058  0.95156552  0.24442713     0.13800
H2926       H  0.25064551  0.97557791  0.30383364     0.10200
H2927       H  0.22350651  0.99642874  0.28099040     0.11300
H2928       H  0.27153783  0.04181577  0.27905576     0.17100
loop_ 
_geom_bond_atom_site_label_1 
_geom_bond_atom_site_label_2 
_geom_bond_distance 
_geom_bond_site_symmetry_2 
_ccdc_geom_bond_type 
O1            C4   1.269       .  A
O1           Cd6   2.465       .  S
C2           O11   1.263       .  A
C2            O7   1.268       .  A
C2         C2861   1.486       .  S
O3            C9   1.266       .  A
O3           Cd6   2.465       .  S
C4           O12   1.266       .  A
C4         C2837   1.489       .  S
C5           O10   1.261       .  A
C5            O8   1.264       .  A
C5         C2890   1.490       .  S
Cd6          O13   2.458       .  S
Cd6          O12   2.438       .  S
Cd6          O11   2.439       .  S
Cd6           O7   2.470       .  S
Cd6          O10   2.466       .  S
Cd6           O8   2.491       .  S
C9           O13   1.263       .  A
C9         C2909   1.489       .  S
O14          C17   1.269       .  A
O14         Cd19   2.477       .  S
C15          O24   1.264       .  A
C15          O20   1.268       .  A
C15        C2765   1.491       .  S
O16          C22   1.267       .  A
O16         Cd19   2.483       .  S
C17          O25   1.266       .  A
C17        C2794   1.489       .  S
C18          O23   1.265       .  A
C18          O21   1.266       .  A
C18        C2914   1.489       .  S
Cd19         O26   2.433       .  S
Cd19         O25   2.442       .  S
Cd19         O24   2.440       .  S
Cd19         O20   2.498       .  S
Cd19         O23   2.474       .  S
Cd19         O21   2.461       .  S
C22          O26   1.263       .  A
C22        C2818   1.480       .  S
O27          C30   1.267       .  A
O27         Cd32   2.478       .  S
C28          O37   1.264       .  A
C28          O33   1.269       .  A
C28        C2693   1.486       .  S
O29          C35   1.263       .  A
O29         Cd32   2.437       .  S
C30          O38   1.263       .  A
C30        C2674   1.484       .  S
C31          O36   1.266       .  A
C31          O34   1.264       .  A
C31        C2717   1.475       .  S
Cd32         O39   2.472       .  S
Cd32         O38   2.437       .  S
Cd32         O37   2.437       .  S
Cd32         O33   2.485       .  S
Cd32         O36   2.477       .  S
Cd32         O34   2.427       .  S
C35          O39   1.266       .  A
C35        C2746   1.484       .  S
O40          C43   1.265       .  A
O40         Cd45   2.447       .  S
C41          O50   1.264       .  A
C41          O46   1.267       .  A
C41        C2621   1.487       .  S
O42          C48   1.262       .  A
O42         Cd45   2.459       .  S
C43          O51   1.266       .  A
C43        C2885   1.488       .  S
C44          O49   1.265       .  A
C44          O47   1.264       .  A
C44        C2741   1.488       .  S
Cd45         O52   2.460       .  S
Cd45         O51   2.480       .  S
Cd45         O50   2.447       .  S
Cd45         O46   2.464       .  S
Cd45         O49   2.461       .  S
Cd45         O47   2.461       .  S
C48          O52   1.265       .  A
C48        C2645   1.487       .  S
O53          C56   1.267       .  A
O53         Cd58   2.461       .  S
C54          O63   1.267       .  A
C54          O59   1.269       .  A
C54        C2549   1.492       .  S
O55          C61   1.266       .  A
O55         Cd58   2.472       .  S
C56          O64   1.266       .  A
C56        C2525   1.490       .  S
C57          O62   1.264       .  A
C57          O60   1.262       .  A
C57        C2573   1.484       .  S
Cd58         O65   2.449       .  S
Cd58         O64   2.462       .  S
Cd58         O63   2.457       .  S
Cd58         O59   2.462       .  S
Cd58         O62   2.485       .  S
Cd58         O60   2.437       .  S
C61          O65   1.264       .  A
C61        C2597   1.483       .  S
O66          C69   1.267       .  A
O66         Cd71   2.458       .  S
C67          O76   1.264       .  A
C67          O72   1.267       .  A
C67        C2477   1.482       .  S
O68          C74   1.264       .  A
O68         Cd71   2.493       .  S
C69          O77   1.267       .  A
C69        C2506   1.489       .  S
C70          O75   1.265       .  A
C70          O73   1.263       .  A
C70        C2602   1.478       .  S
Cd71         O78   2.433       .  S
Cd71         O77   2.470       .  S
Cd71         O76   2.431       .  S
Cd71         O72   2.452       .  S
Cd71         O75   2.444       .  S
Cd71         O73   2.444       .  S
C74          O78   1.263       .  A
C74        C2698   1.480       .  S
O79          C82   1.270       .  A
O79         Cd84   2.465       .  S
C80          O89   1.265       .  A
C80          O85   1.266       .  A
C80        C2381   1.480       .  S
O81          C87   1.267       .  A
O81         Cd84   2.510       .  S
C82          O90   1.266       .  A
C82        C2405   1.489       .  S
C83          O88   1.267       .  A
C83          O86   1.264       .  A
C83        C2458   1.484       .  S
Cd84         O91   2.423       .  S
Cd84         O90   2.435       .  S
Cd84         O89   2.451       .  S
Cd84         O85   2.445       .  S
Cd84         O88   2.462       .  S
Cd84         O86   2.453       .  S
C87          O91   1.262       .  A
C87        C2429   1.480       .  S
O92          C95   1.266       .  A
O92         Cd97   2.464       .  S
C93         O102   1.267       .  A
C93          O98   1.266       .  A
C93        C2722   1.489       .  S
O94         C100   1.266       .  A
O94         Cd97   2.500       .  S
C95         O103   1.266       .  A
C95        C2357   1.485       .  S
C96         O101   1.265       .  A
C96          O99   1.263       .  A
C96        C2501   1.487       .  S
Cd97        O104   2.448       .  S
Cd97        O103   2.456       .  S
Cd97        O102   2.466       .  S
Cd97         O98   2.445       .  S
Cd97        O101   2.501       .  S
Cd97         O99   2.463       .  S
C100        O104   1.263       .  A
C100       C2453   1.489       .  S
O105        C108   1.267       .  A
O105       Cd110   2.478       .  S
C106        O115   1.266       .  A
C106        O111   1.271       .  A
C106       C2813   1.488       .  S
O107        C113   1.265       .  A
O107       Cd110   2.455       .  S
C108        O116   1.263       .  A
C108       C2285   1.489       .  S
C109        O114   1.260       .  A
C109        O112   1.267       .  A
C109       C2314   1.475       .  S
Cd110       O117   2.430       .  S
Cd110       O116   2.448       .  S
Cd110       O115   2.434       .  S
Cd110       O111   2.466       .  S
Cd110       O114   2.375       .  S
Cd110       O112   2.505       .  S
C113        O117   1.266       .  A
C113       C2333   1.483       .  S
O118        C121   1.267       .  A
O118       Cd123   2.466       .  S
C119        O128   1.264       .  A
C119        O124   1.266       .  A
C119       C2218   1.485       .  S
O120        C126   1.264       .  A
O120       Cd123   2.475       .  S
C121        O129   1.266       .  A
C121       C2237   1.487       .  S
C122        O127   1.264       .  A
C122        O125   1.264       .  A
C122       C2338   1.483       .  S
Cd123       O130   2.446       .  S
Cd123       O129   2.432       .  S
Cd123       O128   2.443       .  S
Cd123       O124   2.458       .  S
Cd123       O127   2.437       .  S
Cd123       O125   2.462       .  S
C126        O130   1.264       .  A
C126       C2266   1.485       .  S
O131        C134   1.268       .  A
O131       Cd136   2.455       .  S
C132        O141   1.264       .  A
C132        O137   1.266       .  A
C132       C2122   1.486       .  S
O133        C139   1.262       .  A
O133       Cd136   2.438       .  S
C134        O142   1.266       .  A
C134       C2141   1.483       .  S
C135        O140   1.267       .  A
C135        O138   1.265       .  A
C135       C2189   1.483       .  S
Cd136       O143   2.492       .  S
Cd136       O142   2.452       .  S
Cd136       O141   2.442       .  S
Cd136       O137   2.465       .  S
Cd136       O140   2.456       .  S
Cd136       O138   2.448       .  S
C139        O143   1.267       .  A
C139       C2165   1.484       .  S
O144        C147   1.269       .  A
O144       Cd149   2.465       .  S
C145        O154   1.266       .  A
C145        O150   1.266       .  A
C145       C2074   1.488       .  S
O146        C152   1.263       .  A
O146       Cd149   2.431       .  S
C147        O155   1.265       .  A
C147       C2261   1.483       .  S
C148        O153   1.266       .  A
C148        O151   1.266       .  A
C148       C2194   1.488       .  S
Cd149       O156   2.510       .  S
Cd149       O155   2.439       .  S
Cd149       O154   2.483       .  S
Cd149       O150   2.461       .  S
Cd149       O153   2.468       .  S
Cd149       O151   2.455       .  S
C152        O156   1.267       .  A
C152       C2093   1.491       .  S
O157        C160   1.267       .  A
O157       Cd162   2.469       .  S
C158        O167   1.266       .  A
C158        O163   1.268       .  A
C158       C2434   1.485       .  S
O159        C165   1.265       .  A
O159       Cd162   2.474       .  S
C160        O168   1.264       .  A
C160       C1997   1.481       .  S
C161        O166   1.263       .  A
C161        O164   1.266       .  A
C161       C2021   1.480       .  S
Cd162       O169   2.449       .  S
Cd162       O168   2.449       .  S
Cd162       O167   2.450       .  S
Cd162       O163   2.468       .  S
Cd162       O166   2.434       .  S
Cd162       O164   2.491       .  S
C165        O169   1.264       .  A
C165       C2050   1.488       .  S
O170        C173   1.268       .  A
O170       Cd175   2.447       .  S
C171        O180   1.265       .  A
C171        O176   1.267       .  A
C171       C1978   1.481       .  S
O172        C178   1.262       .  A
O172       Cd175   2.415       .  S
C173        O181   1.265       .  A
C173       C2309   1.483       .  S
C174        O179   1.266       .  A
C174        O177   1.262       .  A
C174       C2045   1.486       .  S
Cd175       O182   2.499       .  S
Cd175       O181   2.428       .  S
Cd175       O180   2.439       .  S
Cd175       O176   2.447       .  S
Cd175       O179   2.454       .  S
Cd175       O177   2.453       .  S
C178        O182   1.267       .  A
C178       C2789   1.480       .  S
O183        C186   1.267       .  A
O183       Cd188   2.459       .  S
C184        O193   1.265       .  A
C184        O189   1.269       .  A
C184       C1901   1.483       .  S
O185        C191   1.265       .  A
O185       Cd188   2.437       .  S
C186        O194   1.264       .  A
C186       C1877   1.480       .  S
C187        O192   1.263       .  A
C187        O190   1.267       .  A
C187       C1930   1.479       .  S
Cd188       O195   2.458       .  S
Cd188       O194   2.434       .  S
Cd188       O193   2.423       .  S
Cd188       O189   2.470       .  S
Cd188       O192   2.422       .  S
Cd188       O190   2.469       .  S
C191        O195   1.267       .  A
C191       C1949   1.485       .  S
O196        C199   1.268       .  A
O196       Cd201   2.460       .  S
C197        O206   1.266       .  A
C197        O202   1.265       .  A
C197       C1853   1.485       .  S
O198        C204   1.268       .  A
O198       Cd201   2.509       .  S
C199        O207   1.267       .  A
C199       C2026   1.487       .  S
C200        O205   1.267       .  A
C200        O203   1.263       .  A
C200       C1954   1.488       .  S
Cd201       O208   2.417       .  S
Cd201       O207   2.437       .  S
Cd201       O206   2.456       .  S
Cd201       O202   2.448       .  S
Cd201       O205   2.475       .  S
Cd201       O203   2.441       .  S
C204        O208   1.261       .  A
C204       C2410   1.481       .  S
O209        C212   1.266       .  A
O209       Cd214   2.457       .  S
C210        O219   1.266       .  A
C210        O215   1.268       .  A
C210       C2098   1.486       .  S
O211        C217   1.265       .  A
O211       Cd214   2.460       .  S
C212        O220   1.265       .  A
C212       C1805   1.490       .  S
C213        O218   1.262       .  A
C213        O216   1.265       .  A
C213       C2242   1.482       .  S
Cd214       O221   2.462       .  S
Cd214       O220   2.474       .  S
Cd214       O219   2.458       .  S
Cd214       O215   2.469       .  S
Cd214       O218   2.446       .  S
Cd214       O216   2.490       .  S
C217        O221   1.266       .  A
C217       C1829   1.487       .  S
O222        C225   1.268       .  A
O222       Cd227   2.459       .  S
C223        O232   1.264       .  A
C223        O228   1.266       .  A
C223       C1757   1.488       .  S
O224        C230   1.262       .  A
O224       Cd227   2.430       .  S
C225        O233   1.265       .  A
C225       C1925   1.486       .  S
C226        O231   1.264       .  A
C226        O229   1.264       .  A
C226       C1834   1.486       .  S
Cd227       O234   2.490       .  S
Cd227       O233   2.441       .  S
Cd227       O232   2.442       .  S
Cd227       O228   2.474       .  S
Cd227       O231   2.454       .  S
Cd227       O229   2.465       .  S
C230        O234   1.265       .  A
C230       C1781   1.481       .  S
O235        C238   1.268       .  A
O235       Cd240   2.453       .  S
C236        O245   1.264       .  A
C236        O241   1.267       .  A
C236       C1685   1.484       .  S
O237        C243   1.263       .  A
O237       Cd240   2.426       .  S
C238        O246   1.266       .  A
C238       C2578   1.483       .  S
C239        O244   1.266       .  A
C239        O242   1.263       .  A
C239       C1733   1.482       .  S
Cd240       O247   2.493       .  S
Cd240       O246   2.435       .  S
Cd240       O245   2.442       .  S
Cd240       O241   2.449       .  S
Cd240       O244   2.460       .  S
Cd240       O242   2.425       .  S
C243        O247   1.265       .  A
C243       C1714   1.485       .  S
O248        C251   1.267       .  A
O248       Cd253   2.456       .  S
C249        O258   1.267       .  A
C249        O254   1.268       .  A
C249       C1786   1.488       .  S
O250        C256   1.267       .  A
O250       Cd253   2.449       .  S
C251        O259   1.263       .  A
C251       C1666   1.480       .  S
C252        O257   1.267       .  A
C252        O255   1.263       .  A
C252       C1906   1.474       .  S
Cd253       O260   2.432       .  S
Cd253       O259   2.430       .  S
Cd253       O258   2.434       .  S
Cd253       O254   2.463       .  S
Cd253       O257   2.480       .  S
Cd253       O255   2.415       .  S
C256        O260   1.264       .  A
C256       C1738   1.482       .  S
O261        C264   1.269       .  A
O261       Cd266   2.481       .  S
C262        O271   1.264       .  A
C262        O267   1.266       .  A
C262       C1613   1.490       .  S
O263        C269   1.265       .  A
O263       Cd266   2.479       .  S
C264        O272   1.266       .  A
C264       C2650   1.486       .  S
C265        O270   1.264       .  A
C265        O268   1.266       .  A
C265       C1637   1.487       .  S
Cd266       O273   2.434       .  S
Cd266       O272   2.435       .  S
Cd266       O271   2.459       .  S
Cd266       O267   2.475       .  S
Cd266       O270   2.460       .  S
Cd266       O268   2.473       .  S
C269        O273   1.263       .  A
C269       C2866   1.480       .  S
O274        C277   1.268       .  A
O274       Cd279   2.467       .  S
C275        O284   1.267       .  A
C275        O280   1.268       .  A
C275       C2170   1.491       .  S
O276        C282   1.267       .  A
O276       Cd279   2.471       .  S
C277        O285   1.264       .  A
C277       C1570   1.488       .  S
C278        O283   1.262       .  A
C278        O281   1.269       .  A
C278       C1589   1.476       .  S
Cd279       O286   2.459       .  S
Cd279       O285   2.452       .  S
Cd279       O284   2.453       .  S
Cd279       O280   2.470       .  S
Cd279       O283   2.415       .  S
Cd279       O281   2.500       .  S
C282        O286   1.265       .  A
C282       C1642   1.488       .  S
O287        C290   1.268       .  A
O287       Cd292   2.466       .  S
C288        O297   1.264       .  A
C288        O293   1.266       .  A
C288       C1517   1.488       .  S
O289        C295   1.264       .  A
O289       Cd292   2.447       .  S
C290        O298   1.267       .  A
C290       C1594   1.489       .  S
C291        O296   1.265       .  A
C291        O294   1.265       .  A
C291       C1546   1.486       .  S
Cd292       O299   2.470       .  S
Cd292       O298   2.444       .  S
Cd292       O297   2.456       .  S
Cd292       O293   2.463       .  S
Cd292       O296   2.457       .  S
Cd292       O294   2.473       .  S
C295        O299   1.264       .  A
C295       C2146   1.483       .  S
O300        C303   1.269       .  A
O300       Cd305   2.482       .  S
C301        O310   1.266       .  A
C301        O306   1.266       .  A
C301       C1493   1.486       .  S
O302        C308   1.268       .  A
O302       Cd305   2.517       .  S
C303        O311   1.265       .  A
C303       C1709   1.484       .  S
C304        O309   1.267       .  A
C304        O307   1.265       .  A
C304       C1541   1.488       .  S
Cd305       O312   2.427       .  S
Cd305       O311   2.441       .  S
Cd305       O310   2.463       .  S
Cd305       O306   2.446       .  S
Cd305       O309   2.453       .  S
Cd305       O307   2.466       .  S
C308        O312   1.262       .  A
C308       C2554   1.485       .  S
O313        C316   1.270       .  A
O313       Cd318   2.464       .  S
C314        O323   1.264       .  A
C314        O319   1.268       .  A
C314       C1858   1.487       .  S
O315        C321   1.263       .  A
O315       Cd318   2.387       .  S
C316        O324   1.265       .  A
C316       C1421   1.488       .  S
C317        O322   1.267       .  A
C317        O320   1.266       .  A
C317       C1469   1.485       .  S
Cd318       O325   2.502       .  S
Cd318       O324   2.431       .  S
Cd318       O323   2.432       .  S
Cd318       O319   2.471       .  S
Cd318       O322   2.463       .  S
Cd318       O320   2.447       .  S
C321        O325   1.270       .  A
C321       C1450   1.479       .  S
O326        C329   1.268       .  A
O326       Cd331   2.465       .  S
C327        O336   1.263       .  A
C327        O332   1.267       .  A
C327       C2770   1.490       .  S
O328        C334   1.266       .  A
O328       Cd331   2.479       .  S
C329        O337   1.265       .  A
C329       C1378   1.486       .  S
C330        O335   1.265       .  A
C330        O333   1.264       .  A
C330       C1474   1.486       .  S
Cd331       O338   2.435       .  S
Cd331       O337   2.443       .  S
Cd331       O336   2.456       .  S
Cd331       O332   2.484       .  S
Cd331       O335   2.458       .  S
Cd331       O333   2.457       .  S
C334        O338   1.264       .  A
C334       C1397   1.480       .  S
O339        C342   1.269       .  A
O339       Cd344   2.465       .  S
C340        O349   1.264       .  A
C340        O345   1.267       .  A
C340       C2482   1.477       .  S
O341        C347   1.265       .  A
O341       Cd344   2.493       .  S
C342        O350   1.268       .  A
C342       C1301   1.487       .  S
C343        O348   1.268       .  A
C343        O346   1.263       .  A
C343       C1349   1.488       .  S
Cd344       O351   2.442       .  S
Cd344       O350   2.432       .  S
Cd344       O349   2.421       .  S
Cd344       O345   2.456       .  S
Cd344       O348   2.482       .  S
Cd344       O346   2.449       .  S
C347        O351   1.262       .  A
C347       C1325   1.483       .  S
O352        C355   1.269       .  A
O352       Cd357   2.462       .  S
C353        O362   1.265       .  A
C353        O358   1.266       .  A
C353       C2002   1.488       .  S
O354        C360   1.262       .  A
O354       Cd357   2.430       .  S
C355        O363   1.265       .  A
C355       C1445   1.487       .  S
C356        O361   1.265       .  A
C356        O359   1.265       .  A
C356       C1354   1.484       .  S
Cd357       O364   2.494       .  S
Cd357       O363   2.437       .  S
Cd357       O362   2.474       .  S
Cd357       O358   2.454       .  S
Cd357       O361   2.465       .  S
Cd357       O359   2.457       .  S
C360        O364   1.266       .  A
C360       C1277   1.483       .  S
O365        C368   1.267       .  A
O365       Cd370   2.466       .  S
C366        O375   1.267       .  A
C366        O371   1.266       .  A
C366       C2069   1.491       .  S
O367        C373   1.268       .  A
O367       Cd370   2.489       .  S
C368        O376   1.266       .  A
C368       C1205   1.489       .  S
C369        O374   1.265       .  A
C369        O372   1.264       .  A
C369       C1253   1.481       .  S
Cd370       O377   2.414       .  S
Cd370       O376   2.462       .  S
Cd370       O375   2.466       .  S
Cd370       O371   2.471       .  S
Cd370       O374   2.471       .  S
Cd370       O372   2.454       .  S
C373        O377   1.262       .  A
C373       C1234   1.477       .  S
O378        C381   1.268       .  A
O378       Cd383   2.440       .  S
C379        O388   1.266       .  A
C379        O384   1.264       .  A
C379       C1973   1.485       .  S
O380        C386   1.264       .  A
O380       Cd383   2.485       .  S
C381        O389   1.266       .  A
C381       C1402   1.484       .  S
C382        O387   1.266       .  A
C382        O385   1.263       .  A
C382       C1258   1.482       .  S
Cd383       O390   2.447       .  S
Cd383       O389   2.445       .  S
Cd383       O388   2.454       .  S
Cd383       O384   2.447       .  S
Cd383       O387   2.469       .  S
Cd383       O385   2.435       .  S
C386        O390   1.263       .  A
C386       C1181   1.486       .  S
O391        C394   1.267       .  A
O391       Cd396   2.466       .  S
C392        O401   1.263       .  A
C392        O397   1.267       .  A
C392       C1661   1.483       .  S
O393        C399   1.265       .  A
O393       Cd396   2.484       .  S
C394        O402   1.267       .  A
C394       C1109   1.485       .  S
C395        O400   1.265       .  A
C395        O398   1.263       .  A
C395       C1162   1.485       .  S
Cd396       O403   2.439       .  S
Cd396       O402   2.445       .  S
Cd396       O401   2.434       .  S
Cd396       O397   2.448       .  S
Cd396       O400   2.469       .  S
Cd396       O398   2.452       .  S
C399        O403   1.263       .  A
C399       C1133   1.481       .  S
O404        C407   1.267       .  A
O404       Cd409   2.459       .  S
C405        O414   1.265       .  A
C405        O410   1.268       .  A
C405       C1229   1.485       .  S
O406        C412   1.266       .  A
O406       Cd409   2.475       .  S
C407        O415   1.266       .  A
C407       C2213   1.486       .  S
C408        O413   1.266       .  A
C408        O411   1.262       .  A
C408       C1085   1.488       .  S
Cd409       O416   2.456       .  S
Cd409       O415   2.448       .  S
Cd409       O414   2.423       .  S
Cd409       O410   2.477       .  S
Cd409       O413   2.509       .  S
Cd409       O411   2.439       .  S
C412        O416   1.263       .  A
C412       C1157   1.485       .  S
O417        C420   1.266       .  A
O417       Cd422   2.474       .  S
C418        O427   1.264       .  A
C418        O423   1.266       .  A
C418       C2362   1.485       .  S
O419        C425   1.262       .  A
O419       Cd422   2.420       .  S
C420        O428   1.267       .  A
C420       C1330   1.488       .  S
C421        O426   1.266       .  A
C421        O424   1.265       .  A
C421       C1061   1.490       .  S
Cd422       O429   2.494       .  S
Cd422       O428   2.451       .  S
Cd422       O427   2.461       .  S
Cd422       O423   2.454       .  S
Cd422       O426   2.466       .  S
Cd422       O424   2.467       .  S
C425        O429   1.267       .  A
C425       C1037   1.482       .  S
O430        C433   1.269       .  A
O430       Cd435   2.468       .  S
C431        O440   1.265       .  A
C431        O436   1.267       .  A
C431       C1618   1.486       .  S
O432        C438   1.264       .  A
O432       Cd435   2.484       .  S
C433        O441   1.265       .  A
C433        C989   1.484       .  S
C434        O439   1.265       .  A
C434        O437   1.265       .  A
C434       C1066   1.487       .  S
Cd435       O442   2.446       .  S
Cd435       O441   2.432       .  S
Cd435       O440   2.438       .  S
Cd435       O436   2.456       .  S
Cd435       O439   2.455       .  S
Cd435       O437   2.458       .  S
C438        O442   1.264       .  A
C438       C1013   1.487       .  S
O443        C446   1.267       .  A
O443       Cd448   2.460       .  S
C444        O453   1.266       .  A
C444        O449   1.265       .  A
C444       C1762   1.487       .  S
O445        C451   1.266       .  A
O445       Cd448   2.488       .  S
C446        O454   1.266       .  A
C446       C1138   1.481       .  S
C447        O452   1.264       .  A
C447        O450   1.265       .  A
C447        C965   1.486       .  S
Cd448       O455   2.434       .  S
Cd448       O454   2.439       .  S
Cd448       O453   2.455       .  S
Cd448       O449   2.453       .  S
Cd448       O452   2.458       .  S
Cd448       O450   2.458       .  S
C451        O455   1.263       .  A
C451        C941   1.479       .  S
O456        C459   1.269       .  A
O456       Cd461   2.453       .  S
C457        O466   1.263       .  A
C457        O462   1.267       .  A
C457       C2386   1.485       .  S
O458        C464   1.267       .  A
O458       Cd461   2.485       .  S
C459        O467   1.266       .  A
C459       C1282   1.485       .  S
C460        O465   1.266       .  A
C460        O463   1.264       .  A
C460        C970   1.484       .  S
Cd461       O468   2.420       .  S
Cd461       O467   2.437       .  S
Cd461       O466   2.436       .  S
Cd461       O462   2.465       .  S
Cd461       O465   2.445       .  S
Cd461       O463   2.446       .  S
C464        O468   1.263       .  A
C464       C1426   1.477       .  S
O469        C472   1.269       .  A
O469       Cd474   2.458       .  S
C470        O479   1.265       .  A
C470        O475   1.267       .  A
C470       C1498   1.491       .  S
O471        C477   1.265       .  A
O471       Cd474   2.485       .  S
C472        O480   1.265       .  A
C472        C874   1.482       .  S
C473        O478   1.267       .  A
C473        O476   1.264       .  A
C473        C917   1.490       .  S
Cd474       O481   2.442       .  S
Cd474       O480   2.438       .  S
Cd474       O479   2.448       .  S
Cd474       O475   2.480       .  S
Cd474       O478   2.468       .  S
Cd474       O476   2.462       .  S
C477        O481   1.262       .  A
C477        C893   1.485       .  S
O482        C485   1.266       .  A
O482       Cd487   2.461       .  S
C483        O492   1.267       .  A
C483        O488   1.267       .  A
C483       C1882   1.483       .  S
O484        C490   1.262       .  A
O484       Cd487   2.465       .  S
C485        O493   1.266       .  A
C485        C946   1.486       .  S
C486        O491   1.265       .  A
C486        O489   1.264       .  A
C486        C922   1.488       .  S
Cd487       O494   2.476       .  S
Cd487       O493   2.452       .  S
Cd487       O492   2.439       .  S
Cd487       O488   2.448       .  S
Cd487       O491   2.476       .  S
Cd487       O489   2.455       .  S
C490        O494   1.264       .  A
C490       C1114   1.489       .  S
O495        C498   1.267       .  A
O495       Cd500   2.465       .  S
C496        O505   1.267       .  A
C496        O501   1.264       .  A
C496       C1690   1.483       .  S
O497        C503   1.263       .  A
O497       Cd500   2.452       .  S
C498        O506   1.265       .  A
C498        C898   1.484       .  S
C499        O504   1.264       .  A
C499        O502   1.265       .  A
C499        C845   1.486       .  S
Cd500       O507   2.487       .  S
Cd500       O506   2.448       .  S
Cd500       O505   2.468       .  S
Cd500       O501   2.446       .  S
Cd500       O504   2.456       .  S
Cd500       O502   2.459       .  S
C503        O507   1.263       .  A
C503        C821   1.488       .  S
O508        C511   1.269       .  A
O508       Cd513   2.451       .  S
C509        O518   1.263       .  A
C509        O514   1.267       .  A
C509       C2669   1.484       .  S
O510        C516   1.261       .  A
O510       Cd513   2.427       .  S
C511        O519   1.268       .  A
C511       C1042   1.484       .  S
C512        O517   1.266       .  A
C512        O515   1.263       .  A
C512        C850   1.485       .  S
Cd513       O520   2.494       .  S
Cd513       O519   2.434       .  S
Cd513       O518   2.439       .  S
Cd513       O514   2.468       .  S
Cd513       O517   2.457       .  S
Cd513       O515   2.454       .  S
C516        O520   1.266       .  A
C516       C1306   1.480       .  S
O521        C524   1.268       .  A
O521       Cd526   2.440       .  S
C522        O531   1.266       .  A
C522        O527   1.266       .  A
C522       C1565   1.485       .  S
O523        C529   1.268       .  A
O523       Cd526   2.511       .  S
C524        O532   1.267       .  A
C524        C749   1.482       .  S
C525        O530   1.266       .  A
C525        O528   1.263       .  A
C525        C797   1.488       .  S
Cd526       O533   2.436       .  S
Cd526       O532   2.442       .  S
Cd526       O531   2.447       .  S
Cd526       O527   2.473       .  S
Cd526       O530   2.477       .  S
Cd526       O528   2.453       .  S
C529        O533   1.261       .  A
C529        C773   1.486       .  S
O534        C537   1.270       .  A
O534       Cd539   2.481       .  S
C535        O544   1.264       .  A
C535        O540   1.267       .  A
C535       C1810   1.484       .  S
O536        C542   1.262       .  A
O536       Cd539   2.459       .  S
C537        O545   1.266       .  A
C537       C1090   1.489       .  S
C538        O543   1.266       .  A
C538        O541   1.262       .  A
C538        C802   1.488       .  S
Cd539       O546   2.490       .  S
Cd539       O545   2.440       .  S
Cd539       O544   2.455       .  S
Cd539       O540   2.475       .  S
Cd539       O543   2.470       .  S
Cd539       O541   2.458       .  S
C542        O546   1.264       .  A
C542       C1210   1.485       .  S
O547        C550   1.270       .  A
O547       Cd552   2.467       .  S
C548        O557   1.264       .  A
C548        O553   1.267       .  A
C548       C2530   1.492       .  S
O549        C555   1.266       .  A
O549       Cd552   2.493       .  S
C550        O558   1.265       .  A
C550        C826   1.489       .  S
C551        O556   1.263       .  A
C551        O554   1.265       .  A
C551        C725   1.487       .  S
Cd552       O559   2.420       .  S
Cd552       O558   2.451       .  S
Cd552       O557   2.465       .  S
Cd552       O553   2.483       .  S
Cd552       O556   2.454       .  S
Cd552       O554   2.471       .  S
C555        O559   1.262       .  A
C555        C869   1.479       .  S
O560        C563   1.267       .  A
O560       Cd565   2.477       .  S
C561        O570   1.265       .  A
C561        O566   1.265       .  A
C561       C2117   1.485       .  S
O562        C568   1.265       .  A
O562       Cd565   2.503       .  S
C563        O571   1.266       .  A
C563        C778   1.490       .  S
C564        O569   1.267       .  A
C564        O567   1.265       .  A
C564        C730   1.485       .  S
Cd565       O572   2.425       .  S
Cd565       O571   2.441       .  S
Cd565       O570   2.468       .  S
Cd565       O566   2.435       .  S
Cd565       O569   2.447       .  S
Cd565       O567   2.447       .  S
C568        O572   1.262       .  A
C568        C701   1.487       .  S
O573        C576   1.266       .  A
O573       Cd578   2.476       .  S
C574        O583   1.266       .  A
C574        O579   1.269       .  A
C574       C1018   1.485       .  S
O575        C581   1.265       .  A
O575       Cd578   2.470       .  S
C576        O584   1.265       .  A
C576       C2626   1.485       .  S
C577        O582   1.263       .  A
C577        O580   1.263       .  A
C577        C653   1.486       .  S
Cd578       O585   2.461       .  S
Cd578       O584   2.447       .  S
Cd578       O583   2.440       .  S
Cd578       O579   2.466       .  S
Cd578       O582   2.451       .  S
Cd578       O580   2.478       .  S
C581        O585   1.264       .  A
C581        C682   1.489       .  S
O586        C589   1.268       .  A
O586       Cd591   2.471       .  S
C587        O596   1.265       .  A
C587        O592   1.266       .  A
C587       C2290   1.490       .  S
O588        C594   1.266       .  A
O588       Cd591   2.503       .  S
C589        O597   1.265       .  A
C589       C1186   1.487       .  S
C590        O595   1.264       .  A
C590        O593   1.266       .  A
C590        C677   1.491       .  S
Cd591       O598   2.439       .  S
Cd591       O597   2.455       .  S
Cd591       O596   2.459       .  S
Cd591       O592   2.468       .  S
Cd591       O595   2.444       .  S
Cd591       O593   2.487       .  S
C594        O598   1.263       .  A
C594       C1373   1.488       .  S
O599        C602   1.268       .  A
O599       Cd604   2.467       .  S
C600        O609   1.265       .  A
C600        O605   1.265       .  A
C600       C1522   1.482       .  S
O601        C607   1.265       .  A
O601       Cd604   2.490       .  S
C602        O610   1.265       .  A
C602        C706   1.488       .  S
C603        O608   1.266       .  A
C603        O606   1.263       .  A
C603        C629   1.484       .  S
Cd604       O611   2.446       .  S
Cd604       O610   2.440       .  S
Cd604       O609   2.449       .  S
Cd604       O605   2.456       .  S
Cd604       O608   2.456       .  S
Cd604       O606   2.442       .  S
C607        O611   1.263       .  A
C607        C754   1.480       .  S
O612        C615   1.268       .  A
O612       Cd617   2.460       .  S
C613        O622   1.267       .  A
C613        O618   1.266       .  A
C613       C2842   1.487       .  S
O614        C620   1.263       .  A
O614       Cd617   2.472       .  S
C615        O623   1.265       .  A
C615        C658   1.482       .  S
C616        O621   1.265       .  A
C616        O619   1.264       .  A
C616        C634   1.487       .  S
Cd617       O624   2.452       .  S
Cd617       O623   2.444       .  S
Cd617       O622   2.452       .  S
Cd617       O618   2.452       .  S
Cd617       O621   2.471       .  S
Cd617       O619   2.449       .  S
C620        O624   1.264       .  A
C620        C994   1.487       .  S
C625        C626   1.410       .  A
C625        C630   1.398       .  A
C625        C639   1.444       .  S
C626        C631   1.484       .  S
C626        C627   1.402       .  A
C627        C628   1.399       .  A
C627        H646   1.085       .  S
C628        C629   1.417       .  A
C628        C640   1.444       .  S
C629        C630   1.406       .  A
C630        H645   1.085       .  S
C631        C632   1.402       .  A
C631        C636   1.408       .  A
C632        C633   1.400       .  A
C632        H647   1.085       .  S
C633        C634   1.417       .  A
C633        C637   1.444       .  S
C634        C635   1.408       .  A
C635        C636   1.398       .  A
C635        H648   1.084       .  S
C636        C638   1.444       .  S
C637        N641   1.157       .  T
C638        N642   1.157       .  T
C639        N644   1.157       .  T
C640        N643   1.157       .  T
C649        C650   1.408       .  A
C649        C654   1.397       .  A
C649        C663   1.445       .  S
C650        C655   1.479       .  S
C650        C651   1.400       .  A
C651        C652   1.402       .  A
C651        H670   1.085       .  S
C652        C653   1.419       .  A
C652        C664   1.444       .  S
C653        C654   1.407       .  A
C654        H669   1.085       .  S
C655        C656   1.401       .  A
C655        C660   1.408       .  A
C656        C657   1.401       .  A
C656        H671   1.085       .  S
C657        C658   1.416       .  A
C657        C661   1.444       .  S
C658        C659   1.405       .  A
C659        C660   1.397       .  A
C659        H672   1.085       .  S
C660        C662   1.445       .  S
C661        N665   1.157       .  T
C662        N666   1.157       .  T
C663        N668   1.157       .  T
C664        N667   1.157       .  T
C673        C674   1.408       .  A
C673        C678   1.404       .  A
C673        C687   1.444       .  S
C674        C679   1.482       .  S
C674        C675   1.399       .  A
C675        C676   1.398       .  A
C675        H694   1.085       .  S
C676        C677   1.419       .  A
C676        C688   1.444       .  S
C677        C678   1.410       .  A
C678        H693   1.084       .  S
C679        C680   1.400       .  A
C679        C684   1.408       .  A
C680        C681   1.401       .  A
C680        H695   1.085       .  S
C681        C682   1.419       .  A
C681        C685   1.444       .  S
C682        C683   1.407       .  A
C683        C684   1.400       .  A
C683        H696   1.084       .  S
C684        C686   1.444       .  S
C685        N689   1.157       .  T
C686        N690   1.157       .  T
C687        N692   1.157       .  T
C688        N691   1.157       .  T
C697        C698   1.409       .  A
C697        C702   1.393       .  A
C697        C711   1.446       .  S
C698        C703   1.482       .  S
C698        C699   1.403       .  A
C699        C700   1.406       .  A
C699        H718   1.085       .  S
C700        C701   1.418       .  A
C700        C712   1.443       .  S
C701        C702   1.406       .  A
C702        H717   1.085       .  S
C703        C704   1.401       .  A
C703        C708   1.409       .  A
C704        C705   1.400       .  A
C704        H719   1.085       .  S
C705        C706   1.418       .  A
C705        C709   1.444       .  S
C706        C707   1.407       .  A
C707        C708   1.400       .  A
C707        H720   1.084       .  S
C708        C710   1.444       .  S
C709        N713   1.157       .  T
C710        N714   1.157       .  T
C711        N716   1.157       .  T
C712        N715   1.157       .  T
C721        C722   1.408       .  A
C721        C726   1.401       .  A
C721        C735   1.444       .  S
C722        C727   1.480       .  S
C722        C723   1.399       .  A
C723        C724   1.397       .  A
C723        H742   1.085       .  S
C724        C725   1.418       .  A
C724        C736   1.444       .  S
C725        C726   1.409       .  A
C726        H741   1.084       .  S
C727        C728   1.400       .  A
C727        C732   1.409       .  A
C728        C729   1.401       .  A
C728        H743   1.085       .  S
C729        C730   1.419       .  A
C729        C733   1.444       .  S
C730        C731   1.406       .  A
C731        C732   1.397       .  A
C731        H744   1.085       .  S
C732        C734   1.445       .  S
C733        N737   1.157       .  T
C734        N738   1.157       .  T
C735        N740   1.157       .  T
C736        N739   1.157       .  T
C745        C746   1.407       .  A
C745        C750   1.401       .  A
C745        C759   1.443       .  S
C746        C751   1.478       .  S
C746        C747   1.400       .  A
C747        C748   1.396       .  A
C747        H766   1.086       .  S
C748        C749   1.416       .  A
C748        C760   1.444       .  S
C749        C750   1.409       .  A
C750        H765   1.085       .  S
C751        C752   1.400       .  A
C751        C756   1.408       .  A
C752        C753   1.398       .  A
C752        H767   1.085       .  S
C753        C754   1.414       .  A
C753        C757   1.444       .  S
C754        C755   1.406       .  A
C755        C756   1.401       .  A
C755        H768   1.085       .  S
C756        C758   1.444       .  S
C757        N761   1.157       .  T
C758        N762   1.157       .  T
C759        N764   1.157       .  T
C760        N763   1.157       .  T
C769        C770   1.413       .  A
C769        C774   1.404       .  A
C769        C783   1.443       .  S
C770        C775   1.492       .  S
C770        C771   1.404       .  A
C771        C772   1.398       .  A
C771        H790   1.085       .  S
C772        C773   1.415       .  A
C772        C784   1.445       .  S
C773        C774   1.406       .  A
C774        H789   1.084       .  S
C775        C776   1.405       .  A
C775        C780   1.411       .  A
C776        C777   1.403       .  A
C776        H791   1.085       .  S
C777        C778   1.417       .  A
C777        C781   1.444       .  S
C778        C779   1.407       .  A
C779        C780   1.399       .  A
C779        H792   1.085       .  S
C780        C782   1.444       .  S
C781        N785   1.157       .  T
C782        N786   1.157       .  T
C783        N788   1.157       .  T
C784        N787   1.157       .  T
C793        C794   1.406       .  A
C793        C798   1.401       .  A
C793        C807   1.444       .  S
C794        C799   1.481       .  S
C794        C795   1.401       .  A
C795        C796   1.400       .  A
C795        H814   1.085       .  S
C796        C797   1.417       .  A
C796        C808   1.444       .  S
C797        C798   1.410       .  A
C798        H813   1.084       .  S
C799        C800   1.400       .  A
C799        C804   1.408       .  A
C800        C801   1.402       .  A
C800        H815   1.085       .  S
C801        C802   1.420       .  A
C801        C805   1.444       .  S
C802        C803   1.407       .  A
C803        C804   1.398       .  A
C803        H816   1.085       .  S
C804        C806   1.444       .  S
C805        N809   1.157       .  T
C806        N810   1.157       .  T
C807        N812   1.157       .  T
C808        N811   1.157       .  T
C817        C818   1.413       .  A
C817        C822   1.398       .  A
C817        C831   1.444       .  S
C818        C823   1.492       .  S
C818        C819   1.405       .  A
C819        C820   1.402       .  A
C819        H838   1.085       .  S
C820        C821   1.417       .  A
C820        C832   1.444       .  S
C821        C822   1.406       .  A
C822        H837   1.085       .  S
C823        C824   1.404       .  A
C823        C828   1.414       .  A
C824        C825   1.403       .  A
C824        H839   1.085       .  S
C825        C826   1.418       .  A
C825        C829   1.444       .  S
C826        C827   1.404       .  A
C827        C828   1.398       .  A
C827        H840   1.085       .  S
C828        C830   1.445       .  S
C829        N833   1.157       .  T
C830        N834   1.157       .  T
C831        N836   1.157       .  T
C832        N835   1.157       .  T
C841        C842   1.407       .  A
C841        C846   1.398       .  A
C841        C855   1.444       .  S
C842        C847   1.479       .  S
C842        C843   1.399       .  A
C843        C844   1.400       .  A
C843        H862   1.085       .  S
C844        C845   1.418       .  A
C844        C856   1.444       .  S
C845        C846   1.408       .  A
C846        H861   1.084       .  S
C847        C848   1.400       .  A
C847        C852   1.408       .  A
C848        C849   1.401       .  A
C848        H863   1.085       .  S
C849        C850   1.419       .  A
C849        C853   1.444       .  S
C850        C851   1.406       .  A
C851        C852   1.397       .  A
C851        H864   1.085       .  S
C852        C854   1.444       .  S
C853        N857   1.157       .  T
C854        N858   1.157       .  T
C855        N860   1.157       .  T
C856        N859   1.157       .  T
C865        C866   1.409       .  A
C865        C870   1.396       .  A
C865        C879   1.445       .  S
C866        C871   1.481       .  S
C866        C867   1.403       .  A
C867        C868   1.402       .  A
C867        H886   1.085       .  S
C868        C869   1.414       .  A
C868        C880   1.443       .  S
C869        C870   1.404       .  A
C870        H885   1.085       .  S
C871        C872   1.401       .  A
C871        C876   1.410       .  A
C872        C873   1.401       .  A
C872        H887   1.085       .  S
C873        C874   1.417       .  A
C873        C877   1.444       .  S
C874        C875   1.404       .  A
C875        C876   1.397       .  A
C875        H888   1.085       .  S
C876        C878   1.445       .  S
C877        N881   1.157       .  T
C878        N882   1.157       .  T
C879        N884   1.157       .  T
C880        N883   1.157       .  T
C889        C890   1.410       .  A
C889        C894   1.397       .  A
C889        C903   1.445       .  S
C890        C895   1.484       .  S
C890        C891   1.402       .  A
C891        C892   1.402       .  A
C891        H910   1.085       .  S
C892        C893   1.417       .  A
C892        C904   1.444       .  S
C893        C894   1.406       .  A
C894        H909   1.085       .  S
C895        C896   1.401       .  A
C895        C900   1.411       .  A
C896        C897   1.400       .  A
C896        H911   1.085       .  S
C897        C898   1.416       .  A
C897        C901   1.444       .  S
C898        C899   1.406       .  A
C899        C900   1.399       .  A
C899        H912   1.085       .  S
C900        C902   1.445       .  S
C901        N905   1.157       .  T
C902        N906   1.157       .  T
C903        N908   1.157       .  T
C904        N907   1.157       .  T
C913        C914   1.409       .  A
C913        C918   1.399       .  A
C913        C927   1.444       .  S
C914        C919   1.486       .  S
C914        C915   1.401       .  A
C915        C916   1.402       .  A
C915        H934   1.085       .  S
C916        C917   1.419       .  A
C916        C928   1.444       .  S
C917        C918   1.407       .  A
C918        H933   1.085       .  S
C919        C920   1.402       .  A
C919        C924   1.408       .  A
C920        C921   1.401       .  A
C920        H935   1.085       .  S
C921        C922   1.417       .  A
C921        C925   1.444       .  S
C922        C923   1.408       .  A
C923        C924   1.400       .  A
C923        H936   1.084       .  S
C924        C926   1.444       .  S
C925        N929   1.157       .  T
C926        N930   1.157       .  T
C927        N932   1.157       .  T
C928        N931   1.157       .  T
C937        C938   1.408       .  A
C937        C942   1.402       .  A
C937        C951   1.443       .  S
C938        C943   1.480       .  S
C938        C939   1.401       .  A
C939        C940   1.398       .  A
C939        H958   1.085       .  S
C940        C941   1.413       .  A
C940        C952   1.445       .  S
C941        C942   1.406       .  A
C942        H957   1.085       .  S
C943        C944   1.401       .  A
C943        C948   1.406       .  A
C944        C945   1.401       .  A
C944        H959   1.085       .  S
C945        C946   1.418       .  A
C945        C949   1.445       .  S
C946        C947   1.408       .  A
C947        C948   1.399       .  A
C947        H960   1.085       .  S
C948        C950   1.443       .  S
C949        N953   1.157       .  T
C950        N954   1.157       .  T
C951        N956   1.157       .  T
C952        N955   1.157       .  T
C961        C962   1.406       .  A
C961        C966   1.399       .  A
C961        C975   1.444       .  S
C962        C967   1.478       .  S
C962        C963   1.400       .  A
C963        C964   1.398       .  A
C963        H982   1.085       .  S
C964        C965   1.418       .  A
C964        C976   1.444       .  S
C965        C966   1.409       .  A
C966        H981   1.084       .  S
C967        C968   1.399       .  A
C967        C972   1.407       .  A
C968        C969   1.399       .  A
C968        H983   1.085       .  S
C969        C970   1.419       .  A
C969        C973   1.444       .  S
C970        C971   1.407       .  A
C971        C972   1.397       .  A
C971        H984   1.085       .  S
C972        C974   1.444       .  S
C973        N977   1.157       .  T
C974        N978   1.157       .  T
C975        N980   1.157       .  T
C976        N979   1.157       .  T
C985        C986   1.410       .  A
C985        C990   1.399       .  A
C985        C999   1.445       .  S
C986        C991   1.481       .  S
C986        C987   1.401       .  A
C987        C988   1.400       .  A
C987       H1006   1.085       .  S
C988        C989   1.417       .  A
C988       C1000   1.444       .  S
C989        C990   1.405       .  A
C990       H1005   1.084       .  S
C991        C992   1.401       .  A
C991        C996   1.409       .  A
C992        C993   1.403       .  A
C992       H1007   1.085       .  S
C993        C994   1.419       .  A
C993        C997   1.444       .  S
C994        C995   1.406       .  A
C995        C996   1.396       .  A
C995       H1008   1.085       .  S
C996        C998   1.446       .  S
C997       N1001   1.157       .  T
C998       N1002   1.157       .  T
C999       N1004   1.157       .  T
C1000      N1003   1.157       .  T
C1009      C1010   1.409       .  A
C1009      C1014   1.397       .  A
C1009      C1023   1.445       .  S
C1010      C1015   1.483       .  S
C1010      C1011   1.402       .  A
C1011      C1012   1.403       .  A
C1011      H1030   1.085       .  S
C1012      C1013   1.419       .  A
C1012      C1024   1.444       .  S
C1013      C1014   1.406       .  A
C1014      H1029   1.085       .  S
C1015      C1016   1.401       .  A
C1015      C1020   1.411       .  A
C1016      C1017   1.401       .  A
C1016      H1031   1.085       .  S
C1017      C1018   1.417       .  A
C1017      C1021   1.444       .  S
C1018      C1019   1.405       .  A
C1019      C1020   1.399       .  A
C1019      H1032   1.085       .  S
C1020      C1022   1.445       .  S
C1021      N1025   1.157       .  T
C1022      N1026   1.157       .  T
C1023      N1028   1.157       .  T
C1024      N1027   1.157       .  T
C1033      C1034   1.408       .  A
C1033      C1038   1.403       .  A
C1033      C1047   1.443       .  S
C1034      C1039   1.481       .  S
C1034      C1035   1.400       .  A
C1035      C1036   1.395       .  A
C1035      H1054   1.085       .  S
C1036      C1037   1.416       .  A
C1036      C1048   1.445       .  S
C1037      C1038   1.408       .  A
C1038      H1053   1.084       .  S
C1039      C1040   1.402       .  A
C1039      C1044   1.408       .  A
C1040      C1041   1.401       .  A
C1040      H1055   1.085       .  S
C1041      C1042   1.416       .  A
C1041      C1045   1.444       .  S
C1042      C1043   1.407       .  A
C1043      C1044   1.397       .  A
C1043      H1056   1.085       .  S
C1044      C1046   1.444       .  S
C1045      N1049   1.157       .  T
C1046      N1050   1.157       .  T
C1047      N1052   1.157       .  T
C1048      N1051   1.157       .  T
C1057      C1058   1.406       .  A
C1057      C1062   1.399       .  A
C1057      C1071   1.444       .  S
C1058      C1063   1.479       .  S
C1058      C1059   1.399       .  A
C1059      C1060   1.401       .  A
C1059      H1078   1.085       .  S
C1060      C1061   1.419       .  A
C1060      C1072   1.443       .  S
C1061      C1062   1.409       .  A
C1062      H1077   1.085       .  S
C1063      C1064   1.400       .  A
C1063      C1068   1.406       .  A
C1064      C1065   1.399       .  A
C1064      H1079   1.085       .  S
C1065      C1066   1.417       .  A
C1065      C1069   1.444       .  S
C1066      C1067   1.409       .  A
C1067      C1068   1.401       .  A
C1067      H1080   1.084       .  S
C1068      C1070   1.444       .  S
C1069      N1073   1.157       .  T
C1070      N1074   1.157       .  T
C1071      N1076   1.157       .  T
C1072      N1075   1.157       .  T
C1081      C1082   1.411       .  A
C1081      C1086   1.398       .  A
C1081      C1095   1.445       .  S
C1082      C1087   1.489       .  S
C1082      C1083   1.404       .  A
C1083      C1084   1.405       .  A
C1083      H1102   1.085       .  S
C1084      C1085   1.417       .  A
C1084      C1096   1.443       .  S
C1085      C1086   1.406       .  A
C1086      H1101   1.085       .  S
C1087      C1088   1.402       .  A
C1087      C1092   1.412       .  A
C1088      C1089   1.402       .  A
C1088      H1103   1.085       .  S
C1089      C1090   1.418       .  A
C1089      C1093   1.444       .  S
C1090      C1091   1.405       .  A
C1091      C1092   1.401       .  A
C1091      H1104   1.084       .  S
C1092      C1094   1.444       .  S
C1093      N1097   1.157       .  T
C1094      N1098   1.157       .  T
C1095      N1100   1.157       .  T
C1096      N1099   1.157       .  T
C1105      C1106   1.406       .  A
C1105      C1110   1.400       .  A
C1105      C1119   1.443       .  S
C1106      C1111   1.481       .  S
C1106      C1107   1.402       .  A
C1107      C1108   1.401       .  A
C1107      H1126   1.085       .  S
C1108      C1109   1.417       .  A
C1108      C1120   1.444       .  S
C1109      C1110   1.408       .  A
C1110      H1125   1.085       .  S
C1111      C1112   1.400       .  A
C1111      C1116   1.406       .  A
C1112      C1113   1.400       .  A
C1112      H1127   1.085       .  S
C1113      C1114   1.418       .  A
C1113      C1117   1.444       .  S
C1114      C1115   1.410       .  A
C1115      C1116   1.401       .  A
C1115      H1128   1.084       .  S
C1116      C1118   1.444       .  S
C1117      N1121   1.157       .  T
C1118      N1122   1.157       .  T
C1119      N1124   1.157       .  T
C1120      N1123   1.158       .  T
C1129      C1130   1.409       .  A
C1129      C1134   1.402       .  A
C1129      C1143   1.444       .  S
C1130      C1135   1.483       .  S
C1130      C1131   1.402       .  A
C1131      C1132   1.397       .  A
C1131      H1150   1.085       .  S
C1132      C1133   1.413       .  A
C1132      C1144   1.444       .  S
C1133      C1134   1.407       .  A
C1134      H1149   1.085       .  S
C1135      C1136   1.403       .  A
C1135      C1140   1.408       .  A
C1136      C1137   1.399       .  A
C1136      H1151   1.086       .  S
C1137      C1138   1.415       .  A
C1137      C1141   1.445       .  S
C1138      C1139   1.406       .  A
C1139      C1140   1.399       .  A
C1139      H1152   1.086       .  S
C1140      C1142   1.443       .  S
C1141      N1145   1.157       .  T
C1142      N1146   1.157       .  T
C1143      N1148   1.157       .  T
C1144      N1147   1.157       .  T
C1153      C1154   1.410       .  A
C1153      C1158   1.400       .  A
C1153      C1167   1.444       .  S
C1154      C1159   1.485       .  S
C1154      C1155   1.402       .  A
C1155      C1156   1.401       .  A
C1155      H1174   1.085       .  S
C1156      C1157   1.416       .  A
C1156      C1168   1.444       .  S
C1157      C1158   1.406       .  A
C1158      H1173   1.085       .  S
C1159      C1160   1.403       .  A
C1159      C1164   1.409       .  A
C1160      C1161   1.400       .  A
C1160      H1175   1.085       .  S
C1161      C1162   1.415       .  A
C1161      C1165   1.444       .  S
C1162      C1163   1.408       .  A
C1163      C1164   1.399       .  A
C1163      H1176   1.084       .  S
C1164      C1166   1.444       .  S
C1165      N1169   1.157       .  T
C1166      N1170   1.157       .  T
C1167      N1172   1.157       .  T
C1168      N1171   1.157       .  T
C1177      C1178   1.412       .  A
C1177      C1182   1.397       .  A
C1177      C1191   1.445       .  S
C1178      C1183   1.490       .  S
C1178      C1179   1.404       .  A
C1179      C1180   1.403       .  A
C1179      H1198   1.085       .  S
C1180      C1181   1.417       .  A
C1180      C1192   1.444       .  S
C1181      C1182   1.405       .  A
C1182      H1197   1.085       .  S
C1183      C1184   1.403       .  A
C1183      C1188   1.413       .  A
C1184      C1185   1.402       .  A
C1184      H1199   1.085       .  S
C1185      C1186   1.417       .  A
C1185      C1189   1.444       .  S
C1186      C1187   1.405       .  A
C1187      C1188   1.399       .  A
C1187      H1200   1.085       .  S
C1188      C1190   1.445       .  S
C1189      N1193   1.157       .  T
C1190      N1194   1.157       .  T
C1191      N1196   1.157       .  T
C1192      N1195   1.157       .  T
C1201      C1202   1.409       .  A
C1201      C1206   1.402       .  A
C1201      C1215   1.444       .  S
C1202      C1207   1.487       .  S
C1202      C1203   1.402       .  A
C1203      C1204   1.400       .  A
C1203      H1222   1.086       .  S
C1204      C1205   1.417       .  A
C1204      C1216   1.444       .  S
C1205      C1206   1.408       .  A
C1206      H1221   1.085       .  S
C1207      C1208   1.403       .  A
C1207      C1212   1.410       .  A
C1208      C1209   1.400       .  A
C1208      H1223   1.085       .  S
C1209      C1210   1.415       .  A
C1209      C1213   1.444       .  S
C1210      C1211   1.407       .  A
C1211      C1212   1.402       .  A
C1211      H1224   1.085       .  S
C1212      C1214   1.443       .  S
C1213      N1217   1.157       .  T
C1214      N1218   1.157       .  T
C1215      N1220   1.157       .  T
C1216      N1219   1.157       .  T
C1225      C1226   1.405       .  A
C1225      C1230   1.397       .  A
C1225      C1239   1.444       .  S
C1226      C1231   1.479       .  S
C1226      C1227   1.402       .  A
C1227      C1228   1.401       .  A
C1227      H1246   1.085       .  S
C1228      C1229   1.417       .  A
C1228      C1240   1.444       .  S
C1229      C1230   1.408       .  A
C1230      H1245   1.085       .  S
C1231      C1232   1.401       .  A
C1231      C1236   1.407       .  A
C1232      C1233   1.396       .  A
C1232      H1247   1.085       .  S
C1233      C1234   1.414       .  A
C1233      C1237   1.446       .  S
C1234      C1235   1.406       .  A
C1235      C1236   1.402       .  A
C1235      H1248   1.085       .  S
C1236      C1238   1.443       .  S
C1237      N1241   1.158       .  T
C1238      N1242   1.157       .  T
C1239      N1244   1.157       .  T
C1240      N1243   1.157       .  T
C1249      C1250   1.410       .  A
C1249      C1254   1.399       .  A
C1249      C1263   1.445       .  S
C1250      C1255   1.483       .  S
C1250      C1251   1.402       .  A
C1251      C1252   1.400       .  A
C1251      H1270   1.085       .  S
C1252      C1253   1.415       .  A
C1252      C1264   1.444       .  S
C1253      C1254   1.405       .  A
C1254      H1269   1.084       .  S
C1255      C1256   1.403       .  A
C1255      C1260   1.408       .  A
C1256      C1257   1.400       .  A
C1256      H1271   1.085       .  S
C1257      C1258   1.414       .  A
C1257      C1261   1.444       .  S
C1258      C1259   1.407       .  A
C1259      C1260   1.397       .  A
C1259      H1272   1.084       .  S
C1260      C1262   1.444       .  S
C1261      N1265   1.157       .  T
C1262      N1266   1.157       .  T
C1263      N1268   1.157       .  T
C1264      N1267   1.157       .  T
C1273      C1274   1.409       .  A
C1273      C1278   1.396       .  A
C1273      C1287   1.446       .  S
C1274      C1279   1.481       .  S
C1274      C1275   1.402       .  A
C1275      C1276   1.403       .  A
C1275      H1294   1.085       .  S
C1276      C1277   1.416       .  A
C1276      C1288   1.443       .  S
C1277      C1278   1.406       .  A
C1278      H1293   1.085       .  S
C1279      C1280   1.401       .  A
C1279      C1284   1.409       .  A
C1280      C1281   1.401       .  A
C1280      H1295   1.085       .  S
C1281      C1282   1.418       .  A
C1281      C1285   1.444       .  S
C1282      C1283   1.406       .  A
C1283      C1284   1.397       .  A
C1283      H1296   1.084       .  S
C1284      C1286   1.444       .  S
C1285      N1289   1.157       .  T
C1286      N1290   1.157       .  T
C1287      N1292   1.157       .  T
C1288      N1291   1.157       .  T
C1297      C1298   1.407       .  A
C1297      C1302   1.399       .  A
C1297      C1311   1.444       .  S
C1298      C1303   1.484       .  S
C1298      C1299   1.403       .  A
C1299      C1300   1.402       .  A
C1299      H1318   1.085       .  S
C1300      C1301   1.417       .  A
C1300      C1312   1.444       .  S
C1301      C1302   1.407       .  A
C1302      H1317   1.085       .  S
C1303      C1304   1.402       .  A
C1303      C1308   1.410       .  A
C1304      C1305   1.398       .  A
C1304      H1319   1.085       .  S
C1305      C1306   1.414       .  A
C1305      C1309   1.445       .  S
C1306      C1307   1.406       .  A
C1307      C1308   1.402       .  A
C1307      H1320   1.085       .  S
C1308      C1310   1.443       .  S
C1309      N1313   1.157       .  T
C1310      N1314   1.157       .  T
C1311      N1316   1.157       .  T
C1312      N1315   1.158       .  T
C1321      C1322   1.410       .  A
C1321      C1326   1.404       .  A
C1321      C1335   1.444       .  S
C1322      C1327   1.486       .  S
C1322      C1323   1.403       .  A
C1323      C1324   1.398       .  A
C1323      H1342   1.085       .  S
C1324      C1325   1.413       .  A
C1324      C1336   1.444       .  S
C1325      C1326   1.408       .  A
C1326      H1341   1.085       .  S
C1327      C1328   1.403       .  A
C1327      C1332   1.408       .  A
C1328      C1329   1.403       .  A
C1328      H1343   1.086       .  S
C1329      C1330   1.418       .  A
C1329      C1333   1.444       .  S
C1330      C1331   1.406       .  A
C1331      C1332   1.399       .  A
C1331      H1344   1.085       .  S
C1332      C1334   1.443       .  S
C1333      N1337   1.158       .  T
C1334      N1338   1.157       .  T
C1335      N1340   1.157       .  T
C1336      N1339   1.157       .  T
C1345      C1346   1.409       .  A
C1345      C1350   1.400       .  A
C1345      C1359   1.444       .  S
C1346      C1351   1.483       .  S
C1346      C1347   1.400       .  A
C1347      C1348   1.402       .  A
C1347      H1366   1.085       .  S
C1348      C1349   1.419       .  A
C1348      C1360   1.444       .  S
C1349      C1350   1.406       .  A
C1350      H1365   1.084       .  S
C1351      C1352   1.401       .  A
C1351      C1356   1.408       .  A
C1352      C1353   1.399       .  A
C1352      H1367   1.085       .  S
C1353      C1354   1.416       .  A
C1353      C1357   1.444       .  S
C1354      C1355   1.407       .  A
C1355      C1356   1.401       .  A
C1355      H1368   1.085       .  S
C1356      C1358   1.444       .  S
C1357      N1361   1.157       .  T
C1358      N1362   1.157       .  T
C1359      N1364   1.157       .  T
C1360      N1363   1.157       .  T
C1369      C1370   1.408       .  A
C1369      C1374   1.396       .  A
C1369      C1383   1.445       .  S
C1370      C1375   1.480       .  S
C1370      C1371   1.400       .  A
C1371      C1372   1.405       .  A
C1371      H1390   1.085       .  S
C1372      C1373   1.418       .  A
C1372      C1384   1.443       .  S
C1373      C1374   1.406       .  A
C1374      H1389   1.085       .  S
C1375      C1376   1.400       .  A
C1375      C1380   1.408       .  A
C1376      C1377   1.402       .  A
C1376      H1391   1.085       .  S
C1377      C1378   1.418       .  A
C1377      C1381   1.444       .  S
C1378      C1379   1.406       .  A
C1379      C1380   1.398       .  A
C1379      H1392   1.084       .  S
C1380      C1382   1.444       .  S
C1381      N1385   1.157       .  T
C1382      N1386   1.157       .  T
C1383      N1388   1.157       .  T
C1384      N1387   1.157       .  T
C1393      C1394   1.408       .  A
C1393      C1398   1.396       .  A
C1393      C1407   1.445       .  S
C1394      C1399   1.476       .  S
C1394      C1395   1.400       .  A
C1395      C1396   1.402       .  A
C1395      H1414   1.085       .  S
C1396      C1397   1.416       .  A
C1396      C1408   1.443       .  S
C1397      C1398   1.405       .  A
C1398      H1413   1.085       .  S
C1399      C1400   1.400       .  A
C1399      C1404   1.407       .  A
C1400      C1401   1.401       .  A
C1400      H1415   1.085       .  S
C1401      C1402   1.418       .  A
C1401      C1405   1.444       .  S
C1402      C1403   1.406       .  A
C1403      C1404   1.395       .  A
C1403      H1416   1.085       .  S
C1404      C1406   1.445       .  S
C1405      N1409   1.157       .  T
C1406      N1410   1.157       .  T
C1407      N1412   1.157       .  T
C1408      N1411   1.157       .  T
C1417      C1418   1.411       .  A
C1417      C1422   1.399       .  A
C1417      C1431   1.445       .  S
C1418      C1423   1.486       .  S
C1418      C1419   1.401       .  A
C1419      C1420   1.400       .  A
C1419      H1438   1.085       .  S
C1420      C1421   1.420       .  A
C1420      C1432   1.444       .  S
C1421      C1422   1.406       .  A
C1422      H1437   1.084       .  S
C1423      C1424   1.404       .  A
C1423      C1428   1.412       .  A
C1424      C1425   1.401       .  A
C1424      H1439   1.085       .  S
C1425      C1426   1.413       .  A
C1425      C1429   1.444       .  S
C1426      C1427   1.403       .  A
C1427      C1428   1.396       .  A
C1427      H1440   1.085       .  S
C1428      C1430   1.445       .  S
C1429      N1433   1.157       .  T
C1430      N1434   1.157       .  T
C1431      N1436   1.157       .  T
C1432      N1435   1.157       .  T
C1441      C1442   1.407       .  A
C1441      C1446   1.398       .  A
C1441      C1455   1.444       .  S
C1442      C1447   1.477       .  S
C1442      C1443   1.398       .  A
C1443      C1444   1.400       .  A
C1443      H1462   1.085       .  S
C1444      C1445   1.419       .  A
C1444      C1456   1.444       .  S
C1445      C1446   1.407       .  A
C1446      H1461   1.085       .  S
C1447      C1448   1.402       .  A
C1447      C1452   1.407       .  A
C1448      C1449   1.405       .  A
C1448      H1463   1.085       .  S
C1449      C1450   1.414       .  A
C1449      C1453   1.443       .  S
C1450      C1451   1.405       .  A
C1451      C1452   1.392       .  A
C1451      H1464   1.085       .  S
C1452      C1454   1.445       .  S
C1453      N1457   1.157       .  T
C1454      N1458   1.157       .  T
C1455      N1460   1.157       .  T
C1456      N1459   1.157       .  T
C1465      C1466   1.407       .  A
C1465      C1470   1.399       .  A
C1465      C1479   1.444       .  S
C1466      C1471   1.479       .  S
C1466      C1467   1.401       .  A
C1467      C1468   1.400       .  A
C1467      H1486   1.085       .  S
C1468      C1469   1.416       .  A
C1468      C1480   1.444       .  S
C1469      C1470   1.408       .  A
C1470      H1485   1.085       .  S
C1471      C1472   1.399       .  A
C1471      C1476   1.408       .  A
C1472      C1473   1.400       .  A
C1472      H1487   1.085       .  S
C1473      C1474   1.418       .  A
C1473      C1477   1.444       .  S
C1474      C1475   1.408       .  A
C1475      C1476   1.399       .  A
C1475      H1488   1.084       .  S
C1476      C1478   1.444       .  S
C1477      N1481   1.157       .  T
C1478      N1482   1.157       .  T
C1479      N1484   1.157       .  T
C1480      N1483   1.157       .  T
C1489      C1490   1.408       .  A
C1489      C1494   1.402       .  A
C1489      C1503   1.444       .  S
C1490      C1495   1.482       .  S
C1490      C1491   1.401       .  A
C1491      C1492   1.398       .  A
C1491      H1510   1.085       .  S
C1492      C1493   1.416       .  A
C1492      C1504   1.444       .  S
C1493      C1494   1.409       .  A
C1494      H1509   1.085       .  S
C1495      C1496   1.399       .  A
C1495      C1500   1.409       .  A
C1496      C1497   1.402       .  A
C1496      H1511   1.085       .  S
C1497      C1498   1.420       .  A
C1497      C1501   1.443       .  S
C1498      C1499   1.408       .  A
C1499      C1500   1.401       .  A
C1499      H1512   1.085       .  S
C1500      C1502   1.445       .  S
C1501      N1505   1.157       .  T
C1502      N1506   1.157       .  T
C1503      N1508   1.157       .  T
C1504      N1507   1.157       .  T
C1513      C1514   1.407       .  A
C1513      C1518   1.398       .  A
C1513      C1527   1.445       .  S
C1514      C1519   1.479       .  S
C1514      C1515   1.399       .  A
C1515      C1516   1.401       .  A
C1515      H1534   1.085       .  S
C1516      C1517   1.419       .  A
C1516      C1528   1.444       .  S
C1517      C1518   1.408       .  A
C1518      H1533   1.085       .  S
C1519      C1520   1.401       .  A
C1519      C1524   1.407       .  A
C1520      C1521   1.401       .  A
C1520      H1535   1.085       .  S
C1521      C1522   1.415       .  A
C1521      C1525   1.444       .  S
C1522      C1523   1.406       .  A
C1523      C1524   1.397       .  A
C1523      H1536   1.085       .  S
C1524      C1526   1.444       .  S
C1525      N1529   1.157       .  T
C1526      N1530   1.157       .  T
C1527      N1532   1.157       .  T
C1528      N1531   1.157       .  T
C1537      C1538   1.409       .  A
C1537      C1542   1.397   1_554  A
C1537      C1551   1.444       .  S
C1538      C1543   1.483       .  S
C1538      C1539   1.401       .  A
C1539      C1540   1.404   1_554  A
C1539      H1558   1.085       .  S
C1540      C1541   1.419       .  A
C1540      C1552   1.444       .  S
C1541      C1542   1.406       .  A
C1542      H1557   1.085       .  S
C1543      C1544   1.401       .  A
C1543      C1548   1.408       .  A
C1544      C1545   1.399       .  A
C1544      H1559   1.085       .  S
C1545      C1546   1.416       .  A
C1545      C1549   1.444       .  S
C1546      C1547   1.408       .  A
C1547      C1548   1.402       .  A
C1547      H1560   1.084       .  S
C1548      C1550   1.444       .  S
C1549      N1553   1.157       .  T
C1550      N1554   1.157       .  T
C1551      N1556   1.157       .  T
C1552      N1555   1.157       .  T
C1561      C1562   1.407       .  A
C1561      C1566   1.397       .  A
C1561      C1575   1.444       .  S
C1562      C1567   1.482       .  S
C1562      C1563   1.402       .  A
C1563      C1564   1.403       .  A
C1563      H1582   1.085       .  S
C1564      C1565   1.416       .  A
C1564      C1576   1.444       .  S
C1565      C1566   1.407       .  A
C1566      H1581   1.084       .  S
C1567      C1568   1.400       .  A
C1567      C1572   1.409       .  A
C1568      C1569   1.402       .  A
C1568      H1583   1.085       .  S
C1569      C1570   1.419       .  A
C1569      C1573   1.444       .  S
C1570      C1571   1.406       .  A
C1571      C1572   1.398       .  A
C1571      H1584   1.084       .  S
C1572      C1574   1.445       .  S
C1573      N1577   1.157       .  T
C1574      N1578   1.157       .  T
C1575      N1580   1.157       .  T
C1576      N1579   1.157       .  T
C1585      C1586   1.410       .  A
C1585      C1590   1.404       .  A
C1585      C1599   1.443       .  S
C1586      C1591   1.483       .  S
C1586      C1587   1.402       .  A
C1587      C1588   1.397       .  A
C1587      H1606   1.085       .  S
C1588      C1589   1.413       .  A
C1588      C1600   1.446       .  S
C1589      C1590   1.405       .  A
C1590      H1605   1.085       .  S
C1591      C1592   1.401       .  A
C1591      C1596   1.408       .  A
C1592      C1593   1.401       .  A
C1592      H1607   1.085       .  S
C1593      C1594   1.418       .  A
C1593      C1597   1.444       .  S
C1594      C1595   1.408       .  A
C1595      C1596   1.400       .  A
C1595      H1608   1.085       .  S
C1596      C1598   1.444       .  S
C1597      N1601   1.157       .  T
C1598      N1602   1.157       .  T
C1599      N1604   1.157       .  T
C1600      N1603   1.158       .  T
C1609      C1610   1.408       .  A
C1609      C1614   1.401       .  A
C1609      C1623   1.444       .  S
C1610      C1615   1.483       .  S
C1610      C1611   1.401       .  A
C1611      C1612   1.401       .  A
C1611      H1630   1.085       .  S
C1612      C1613   1.418       .  A
C1612      C1624   1.444       .  S
C1613      C1614   1.409       .  A
C1614      H1629   1.084       .  S
C1615      C1616   1.400       .  A
C1615      C1620   1.410       .  A
C1616      C1617   1.400       .  A
C1616      H1631   1.085       .  S
C1617      C1618   1.419       .  A
C1617      C1621   1.444       .  S
C1618      C1619   1.406       .  A
C1619      C1620   1.399       .  A
C1619      H1632   1.085       .  S
C1620      C1622   1.444       .  S
C1621      N1625   1.157       .  T
C1622      N1626   1.157       .  T
C1623      N1628   1.157       .  T
C1624      N1627   1.157       .  T
C1633      C1634   1.408       .  A
C1633      C1638   1.400       .  A
C1633      C1647   1.444       .  S
C1634      C1639   1.482   1_455  S
C1634      C1635   1.401       .  A
C1635      C1636   1.401       .  A
C1635      H1654   1.085       .  S
C1636      C1637   1.417       .  A
C1636      C1648   1.444       .  S
C1637      C1638   1.407       .  A
C1638      H1653   1.084       .  S
C1639      C1640   1.400       .  A
C1639      C1644   1.408       .  A
C1640      C1641   1.401       .  A
C1640      H1655   1.085       .  S
C1641      C1642   1.418       .  A
C1641      C1645   1.444       .  S
C1642      C1643   1.407       .  A
C1643      C1644   1.400       .  A
C1643      H1656   1.085       .  S
C1644      C1646   1.444       .  S
C1645      N1649   1.157       .  T
C1646      N1650   1.157       .  T
C1647      N1652   1.157       .  T
C1648      N1651   1.157       .  T
C1657      C1658   1.410       .  A
C1657      C1662   1.396       .  A
C1657      C1671   1.445       .  S
C1658      C1663   1.478       .  S
C1658      C1659   1.399       .  A
C1659      C1660   1.399       .  A
C1659      H1678   1.085       .  S
C1660      C1661   1.419       .  A
C1660      C1672   1.444       .  S
C1661      C1662   1.405       .  A
C1662      H1677   1.085       .  S
C1663      C1664   1.402       .  A
C1663      C1668   1.407       .  A
C1664      C1665   1.399       .  A
C1664      H1679   1.085       .  S
C1665      C1666   1.414       .  A
C1665      C1669   1.444       .  S
C1666      C1667   1.407       .  A
C1667      C1668   1.396       .  A
C1667      H1680   1.085       .  S
C1668      C1670   1.444       .  S
C1669      N1673   1.157       .  T
C1670      N1674   1.157       .  T
C1671      N1676   1.157       .  T
C1672      N1675   1.157       .  T
C1681      C1682   1.409       .  A
C1681      C1686   1.397       .  A
C1681      C1695   1.445       .  S
C1682      C1687   1.480       .  S
C1682      C1683   1.400       .  A
C1683      C1684   1.400       .  A
C1683      H1702   1.085       .  S
C1684      C1685   1.418       .  A
C1684      C1696   1.444       .  S
C1685      C1686   1.406       .  A
C1686      H1701   1.085       .  S
C1687      C1688   1.401       .  A
C1687      C1692   1.407       .  A
C1688      C1689   1.398       .  A
C1688      H1703   1.085       .  S
C1689      C1690   1.416       .  A
C1689      C1693   1.444       .  S
C1690      C1691   1.408       .  A
C1691      C1692   1.400       .  A
C1691      H1704   1.085       .  S
C1692      C1694   1.443       .  S
C1693      N1697   1.157       .  T
C1694      N1698   1.157       .  T
C1695      N1700   1.157       .  T
C1696      N1699   1.157       .  T
C1705      C1706   1.410       .  A
C1705      C1710   1.400       .  A
C1705      C1719   1.445       .  S
C1706      C1711   1.482       .  S
C1706      C1707   1.401       .  A
C1707      C1708   1.401       .  A
C1707      H1726   1.085       .  S
C1708      C1709   1.416       .  A
C1708      C1720   1.444       .  S
C1709      C1710   1.405       .  A
C1710      H1725   1.085       .  S
C1711      C1712   1.402       .  A
C1711      C1716   1.408       .  A
C1712      C1713   1.405       .  A
C1712      H1727   1.085       .  S
C1713      C1714   1.418       .  A
C1713      C1717   1.444       .  S
C1714      C1715   1.405       .  A
C1715      C1716   1.395       .  A
C1715      H1728   1.085       .  S
C1716      C1718   1.445       .  S
C1717      N1721   1.157       .  T
C1718      N1722   1.157       .  T
C1719      N1724   1.157       .  T
C1720      N1723   1.157       .  T
C1729      C1730   1.405       .  A
C1729      C1734   1.396       .  A
C1729      C1743   1.444       .  S
C1730      C1735   1.473   1_565  S
C1730      C1731   1.400       .  A
C1731      C1732   1.398       .  A
C1731      H1750   1.085       .  S
C1732      C1733   1.416       .  A
C1732      C1744   1.444       .  S
C1733      C1734   1.409       .  A
C1734      H1749   1.084       .  S
C1735      C1736   1.398       .  A
C1735      C1740   1.406       .  A
C1736      C1737   1.397       .  A
C1736      H1751   1.085       .  S
C1737      C1738   1.419       .  A
C1737      C1741   1.444       .  S
C1738      C1739   1.407       .  A
C1739      C1740   1.396       .  A
C1739      H1752   1.085       .  S
C1740      C1742   1.444       .  S
C1741      N1745   1.157       .  T
C1742      N1746   1.157   1_545  T
C1743      N1748   1.157       .  T
C1744      N1747   1.157       .  T
C1753      C1754   1.410       .  A
C1753      C1758   1.401       .  A
C1753      C1767   1.445       .  S
C1754      C1759   1.481       .  S
C1754      C1755   1.398       .  A
C1755      C1756   1.399       .  A
C1755      H1774   1.085       .  S
C1756      C1757   1.419       .  A
C1756      C1768   1.444       .  S
C1757      C1758   1.408       .  A
C1758      H1773   1.084       .  S
C1759      C1760   1.401       .  A
C1759      C1764   1.407       .  A
C1760      C1761   1.400       .  A
C1760      H1775   1.085       .  S
C1761      C1762   1.418       .  A
C1761      C1765   1.444       .  S
C1762      C1763   1.408       .  A
C1763      C1764   1.399       .  A
C1763      H1776   1.085       .  S
C1764      C1766   1.444       .  S
C1765      N1769   1.157       .  T
C1766      N1770   1.157       .  T
C1767      N1772   1.157       .  T
C1768      N1771   1.157       .  T
C1777      C1778   1.412       .  A
C1777      C1782   1.402       .  A
C1777      C1791   1.444       .  S
C1778      C1783   1.487       .  S
C1778      C1779   1.403       .  A
C1779      C1780   1.396       .  A
C1779      H1798   1.085       .  S
C1780      C1781   1.413       .  A
C1780      C1792   1.445       .  S
C1781      C1782   1.406       .  A
C1782      H1797   1.085       .  S
C1783      C1784   1.404       .  A
C1783      C1788   1.410       .  A
C1784      C1785   1.401       .  A
C1784      H1799   1.085       .  S
C1785      C1786   1.417       .  A
C1785      C1789   1.444       .  S
C1786      C1787   1.408       .  A
C1787      C1788   1.398       .  A
C1787      H1800   1.084       .  S
C1788      C1790   1.444       .  S
C1789      N1793   1.157       .  T
C1790      N1794   1.157       .  T
C1791      N1796   1.157       .  T
C1792      N1795   1.157       .  T
C1801      C1802   1.407       .  A
C1801      C1806   1.397       .  A
C1801      C1815   1.445       .  S
C1802      C1807   1.481       .  S
C1802      C1803   1.400       .  A
C1803      C1804   1.405       .  A
C1803      H1822   1.085       .  S
C1804      C1805   1.420       .  A
C1804      C1816   1.444       .  S
C1805      C1806   1.407       .  A
C1806      H1821   1.084       .  S
C1807      C1808   1.402       .  A
C1807      C1812   1.407       .  A
C1808      C1809   1.402       .  A
C1808      H1823   1.085       .  S
C1809      C1810   1.414       .  A
C1809      C1813   1.444       .  S
C1810      C1811   1.407       .  A
C1811      C1812   1.400       .  A
C1811      H1824   1.085       .  S
C1812      C1814   1.444       .  S
C1813      N1817   1.157       .  T
C1814      N1818   1.157       .  T
C1815      N1820   1.157       .  T
C1816      N1819   1.157       .  T
C1825      C1826   1.410       .  A
C1825      C1830   1.400       .  A
C1825      C1839   1.444       .  S
C1826      C1831   1.486       .  S
C1826      C1827   1.402       .  A
C1827      C1828   1.400       .  A
C1827      H1846   1.085       .  S
C1828      C1829   1.417       .  A
C1828      C1840   1.444       .  S
C1829      C1830   1.408       .  A
C1830      H1845   1.084       .  S
C1831      C1832   1.403       .  A
C1831      C1836   1.411       .  A
C1832      C1833   1.401   1_554  A
C1832      H1847   1.085       .  S
C1833      C1834   1.417       .  A
C1833      C1837   1.444       .  S
C1834      C1835   1.406       .  A
C1835      C1836   1.398   1_556  A
C1835      H1848   1.085       .  S
C1836      C1838   1.445       .  S
C1837      N1841   1.157       .  T
C1838      N1842   1.157       .  T
C1839      N1844   1.157       .  T
C1840      N1843   1.157       .  T
C1849      C1850   1.407       .  A
C1849      C1854   1.400       .  A
C1849      C1863   1.444       .  S
C1850      C1855   1.480       .  S
C1850      C1851   1.400       .  A
C1851      C1852   1.398       .  A
C1851      H1870   1.085       .  S
C1852      C1853   1.417       .  A
C1852      C1864   1.444       .  S
C1853      C1854   1.408       .  A
C1854      H1869   1.084       .  S
C1855      C1856   1.399       .  A
C1855      C1860   1.409       .  A
C1856      C1857   1.399       .  A
C1856      H1871   1.085       .  S
C1857      C1858   1.420       .  A
C1857      C1861   1.444       .  S
C1858      C1859   1.407       .  A
C1859      C1860   1.400       .  A
C1859      H1872   1.085       .  S
C1860      C1862   1.445       .  S
C1861      N1865   1.157       .  T
C1862      N1866   1.157       .  T
C1863      N1868   1.157       .  T
C1864      N1867   1.157       .  T
C1873      C1874   1.408       .  A
C1873      C1878   1.397       .  A
C1873      C1887   1.445       .  S
C1874      C1879   1.476       .  S
C1874      C1875   1.400       .  A
C1875      C1876   1.400       .  A
C1875      H1894   1.085       .  S
C1876      C1877   1.416       .  A
C1876      C1888   1.444       .  S
C1877      C1878   1.406       .  A
C1878      H1893   1.085       .  S
C1879      C1880   1.401       .  A
C1879      C1884   1.405       .  A
C1880      C1881   1.400       .  A
C1880      H1895   1.085       .  S
C1881      C1882   1.417       .  A
C1881      C1885   1.444       .  S
C1882      C1883   1.408       .  A
C1883      C1884   1.397       .  A
C1883      H1896   1.085       .  S
C1884      C1886   1.444       .  S
C1885      N1889   1.157       .  T
C1886      N1890   1.157       .  T
C1887      N1892   1.157       .  T
C1888      N1891   1.157       .  T
C1897      C1898   1.410       .  A
C1897      C1902   1.399       .  A
C1897      C1911   1.444       .  S
C1898      C1903   1.480       .  S
C1898      C1899   1.400       .  A
C1899      C1900   1.399       .  A
C1899      H1918   1.085       .  S
C1900      C1901   1.417       .  A
C1900      C1912   1.444       .  S
C1901      C1902   1.406       .  A
C1902      H1917   1.084       .  S
C1903      C1904   1.403       .  A
C1903      C1908   1.411       .  A
C1904      C1905   1.403       .  A
C1904      H1919   1.085       .  S
C1905      C1906   1.413       .  A
C1905      C1909   1.444       .  S
C1906      C1907   1.402       .  A
C1907      C1908   1.395       .  A
C1907      H1920   1.086       .  S
C1908      C1910   1.445       .  S
C1909      N1913   1.157       .  T
C1910      N1914   1.157       .  T
C1911      N1916   1.157       .  T
C1912      N1915   1.157       .  T
C1921      C1922   1.406       .  A
C1921      C1926   1.399       .  A
C1921      C1935   1.444       .  S
C1922      C1927   1.475       .  S
C1922      C1923   1.398       .  A
C1923      C1924   1.399       .  A
C1923      H1942   1.085       .  S
C1924      C1925   1.419       .  A
C1924      C1936   1.444       .  S
C1925      C1926   1.408       .  A
C1926      H1941   1.084       .  S
C1927      C1928   1.400       .  A
C1927      C1932   1.408       .  A
C1928      C1929   1.402       .  A
C1928      H1943   1.085       .  S
C1929      C1930   1.416       .  A
C1929      C1933   1.444       .  S
C1930      C1931   1.405       .  A
C1931      C1932   1.394       .  A
C1931      H1944   1.085       .  S
C1932      C1934   1.445       .  S
C1933      N1937   1.157       .  T
C1934      N1938   1.157       .  T
C1935      N1940   1.157       .  T
C1936      N1939   1.157       .  T
C1945      C1946   1.410       .  A
C1945      C1950   1.399       .  A
C1945      C1959   1.444       .  S
C1946      C1951   1.485   1_655  S
C1946      C1947   1.402       .  A
C1947      C1948   1.399       .  A
C1947      H1966   1.085       .  S
C1948      C1949   1.417       .  A
C1948      C1960   1.444       .  S
C1949      C1950   1.407       .  A
C1950      H1965   1.084       .  S
C1951      C1952   1.400       .  A
C1951      C1956   1.411       .  A
C1952      C1953   1.400       .  A
C1952      H1967   1.085       .  S
C1953      C1954   1.419       .  A
C1953      C1957   1.444       .  S
C1954      C1955   1.406       .  A
C1955      C1956   1.400       .  A
C1955      H1968   1.084       .  S
C1956      C1958   1.445   1_455  S
C1957      N1961   1.157       .  T
C1958      N1962   1.157       .  T
C1959      N1964   1.157       .  T
C1960      N1963   1.157       .  T
C1969      C1970   1.407       .  A
C1969      C1974   1.399       .  A
C1969      C1983   1.444       .  S
C1970      C1975   1.479       .  S
C1970      C1971   1.400       .  A
C1971      C1972   1.398       .  A
C1971      H1990   1.085       .  S
C1972      C1973   1.418       .  A
C1972      C1984   1.445       .  S
C1973      C1974   1.408       .  A
C1974      H1989   1.084       .  S
C1975      C1976   1.399       .  A
C1975      C1980   1.409       .  A
C1976      C1977   1.399       .  A
C1976      H1991   1.085       .  S
C1977      C1978   1.418       .  A
C1977      C1981   1.444       .  S
C1978      C1979   1.405       .  A
C1979      C1980   1.398       .  A
C1979      H1992   1.085       .  S
C1980      C1982   1.445       .  S
C1981      N1985   1.157       .  T
C1982      N1986   1.157       .  T
C1983      N1988   1.157       .  T
C1984      N1987   1.158       .  T
C1993      C1994   1.408       .  A
C1993      C1998   1.399       .  A
C1993      C2007   1.444       .  S
C1994      C1999   1.481       .  S
C1994      C1995   1.402       .  A
C1995      C1996   1.401       .  A
C1995      H2014   1.085       .  S
C1996      C1997   1.413       .  A
C1996      C2008   1.443       .  S
C1997      C1998   1.406       .  A
C1998      H2013   1.085       .  S
C1999      C2000   1.401       .  A
C1999      C2004   1.408       .  A
C2000      C2001   1.403       .  A
C2000      H2015   1.085       .  S
C2001      C2002   1.418       .  A
C2001      C2005   1.444       .  S
C2002      C2003   1.407       .  A
C2003      C2004   1.398       .  A
C2003      H2016   1.085       .  S
C2004      C2006   1.444       .  S
C2005      N2009   1.157       .  T
C2006      N2010   1.157       .  T
C2007      N2012   1.157       .  T
C2008      N2011   1.157       .  T
C2017      C2018   1.412       .  A
C2017      C2022   1.403       .  A
C2017      C2031   1.444       .  S
C2018      C2023   1.487       .  S
C2018      C2019   1.403       .  A
C2019      C2020   1.397       .  A
C2019      H2038   1.085       .  S
C2020      C2021   1.412       .  A
C2020      C2032   1.444       .  S
C2021      C2022   1.406       .  A
C2022      H2037   1.085       .  S
C2023      C2024   1.404       .  A
C2023      C2028   1.410       .  A
C2024      C2025   1.400       .  A
C2024      H2039   1.085       .  S
C2025      C2026   1.416       .  A
C2025      C2029   1.444       .  S
C2026      C2027   1.408       .  A
C2027      C2028   1.398       .  A
C2027      H2040   1.085       .  S
C2028      C2030   1.444       .  S
C2029      N2033   1.157       .  T
C2030      N2034   1.157       .  T
C2031      N2036   1.157       .  T
C2032      N2035   1.157       .  T
C2041      C2042   1.409       .  A
C2041      C2046   1.396       .  A
C2041      C2055   1.444       .  S
C2042      C2047   1.484       .  S
C2042      C2043   1.402       .  A
C2043      C2044   1.401       .  A
C2043      H2062   1.085       .  S
C2044      C2045   1.419       .  A
C2044      C2056   1.444       .  S
C2045      C2046   1.405       .  A
C2046      H2061   1.085       .  S
C2047      C2048   1.403       .  A
C2047      C2052   1.408       .  A
C2048      C2049   1.401   1_554  A
C2048      H2063   1.085       .  S
C2049      C2050   1.418       .  A
C2049      C2053   1.444       .  S
C2050      C2051   1.408       .  A
C2051      C2052   1.398   1_556  A
C2051      H2064   1.084       .  S
C2052      C2054   1.444       .  S
C2053      N2057   1.157       .  T
C2054      N2058   1.157       .  T
C2055      N2060   1.157       .  T
C2056      N2059   1.158       .  T
C2065      C2066   1.408       .  A
C2065      C2070   1.402       .  A
C2065      C2079   1.444       .  S
C2066      C2071   1.486       .  S
C2066      C2067   1.402       .  A
C2067      C2068   1.402       .  A
C2067      H2086   1.085       .  S
C2068      C2069   1.417       .  A
C2068      C2080   1.444       .  S
C2069      C2070   1.409       .  A
C2070      H2085   1.085       .  S
C2071      C2072   1.403       .  A
C2071      C2076   1.409       .  A
C2072      C2073   1.405       .  A
C2072      H2087   1.085       .  S
C2073      C2074   1.416       .  A
C2073      C2077   1.443       .  S
C2074      C2075   1.406       .  A
C2075      C2076   1.399       .  A
C2075      H2088   1.085       .  S
C2076      C2078   1.444       .  S
C2077      N2081   1.157       .  T
C2078      N2082   1.157       .  T
C2079      N2084   1.157       .  T
C2080      N2083   1.157       .  T
C2089      C2090   1.408       .  A
C2089      C2094   1.395       .  A
C2089      C2103   1.446       .  S
C2090      C2095   1.484       .  S
C2090      C2091   1.402       .  A
C2091      C2092   1.408       .  A
C2091      H2110   1.084       .  S
C2092      C2093   1.419       .  A
C2092      C2104   1.443       .  S
C2093      C2094   1.407       .  A
C2094      H2109   1.084       .  S
C2095      C2096   1.401       .  A
C2095      C2100   1.410       .  A
C2096      C2097   1.405       .  A
C2096      H2111   1.085       .  S
C2097      C2098   1.417       .  A
C2097      C2101   1.444       .  S
C2098      C2099   1.405       .  A
C2099      C2100   1.398       .  A
C2099      H2112   1.085       .  S
C2100      C2102   1.444       .  S
C2101      N2105   1.157       .  T
C2102      N2106   1.157       .  T
C2103      N2108   1.157       .  T
C2104      N2107   1.157       .  T
C2113      C2114   1.409       .  A
C2113      C2118   1.394       .  A
C2113      C2127   1.445       .  S
C2114      C2119   1.482       .  S
C2114      C2115   1.401       .  A
C2115      C2116   1.403       .  A
C2115      H2134   1.085       .  S
C2116      C2117   1.419       .  A
C2116      C2128   1.444       .  S
C2117      C2118   1.405       .  A
C2118      H2133   1.085       .  S
C2119      C2120   1.402       .  A
C2119      C2124   1.407       .  A
C2120      C2121   1.398       .  A
C2120      H2135   1.085       .  S
C2121      C2122   1.416       .  A
C2121      C2125   1.444       .  S
C2122      C2123   1.409       .  A
C2123      C2124   1.400       .  A
C2123      H2136   1.085       .  S
C2124      C2126   1.444       .  S
C2125      N2129   1.157       .  T
C2126      N2130   1.157       .  T
C2127      N2132   1.157       .  T
C2128      N2131   1.157       .  T
C2137      C2138   1.409       .  A
C2137      C2142   1.397       .  A
C2137      C2151   1.445       .  S
C2138      C2143   1.480       .  S
C2138      C2139   1.400       .  A
C2139      C2140   1.403       .  A
C2139      H2158   1.085       .  S
C2140      C2141   1.417       .  A
C2140      C2152   1.444       .  S
C2141      C2142   1.405       .  A
C2142      H2157   1.085       .  S
C2143      C2144   1.400       .  A
C2143      C2148   1.408       .  A
C2144      C2145   1.401       .  A
C2144      H2159   1.085       .  S
C2145      C2146   1.418       .  A
C2145      C2149   1.444       .  S
C2146      C2147   1.406       .  A
C2147      C2148   1.399       .  A
C2147      H2160   1.085       .  S
C2148      C2150   1.445       .  S
C2149      N2153   1.157       .  T
C2150      N2154   1.157       .  T
C2151      N2156   1.157       .  T
C2152      N2155   1.157       .  T
C2161      C2162   1.409       .  A
C2161      C2166   1.403       .  A
C2161      C2175   1.443       .  S
C2162      C2167   1.485       .  S
C2162      C2163   1.402       .  A
C2163      C2164   1.398       .  A
C2163      H2182   1.086       .  S
C2164      C2165   1.415       .  A
C2164      C2176   1.445       .  S
C2165      C2166   1.407       .  A
C2166      H2181   1.085       .  S
C2167      C2168   1.402       .  A
C2167      C2172   1.408       .  A
C2168      C2169   1.403       .  A
C2168      H2183   1.085       .  S
C2169      C2170   1.418       .  A
C2169      C2173   1.444       .  S
C2170      C2171   1.409       .  A
C2171      C2172   1.400       .  A
C2171      H2184   1.085       .  S
C2172      C2174   1.444       .  S
C2173      N2177   1.157       .  T
C2174      N2178   1.157       .  T
C2175      N2180   1.157       .  T
C2176      N2179   1.158       .  T
C2185      C2186   1.408       .  A
C2185      C2190   1.399       .  A
C2185      C2199   1.444       .  S
C2186      C2191   1.480   1_565  S
C2186      C2187   1.400       .  A
C2187      C2188   1.401       .  A
C2187      H2206   1.085       .  S
C2188      C2189   1.418       .  A
C2188      C2200   1.444       .  S
C2189      C2190   1.406       .  A
C2190      H2205   1.085       .  S
C2191      C2192   1.400       .  A
C2191      C2196   1.406       .  A
C2192      C2193   1.400       .  A
C2192      H2207   1.085       .  S
C2193      C2194   1.418       .  A
C2193      C2197   1.444       .  S
C2194      C2195   1.408       .  A
C2195      C2196   1.400       .  A
C2195      H2208   1.084       .  S
C2196      C2198   1.444       .  S
C2197      N2201   1.157       .  T
C2198      N2202   1.157       .  T
C2199      N2204   1.157   1_565  T
C2200      N2203   1.157       .  T
C2209      C2210   1.409       .  A
C2209      C2214   1.398       .  A
C2209      C2223   1.445       .  S
C2210      C2215   1.481       .  S
C2210      C2211   1.400       .  A
C2211      C2212   1.401       .  A
C2211      H2230   1.085       .  S
C2212      C2213   1.418       .  A
C2212      C2224   1.443       .  S
C2213      C2214   1.407       .  A
C2214      H2229   1.085       .  S
C2215      C2216   1.401       .  A
C2215      C2220   1.407       .  A
C2216      C2217   1.398       .  A
C2216      H2231   1.085       .  S
C2217      C2218   1.416       .  A
C2217      C2221   1.444       .  S
C2218      C2219   1.409       .  A
C2219      C2220   1.399       .  A
C2219      H2232   1.085       .  S
C2220      C2222   1.444       .  S
C2221      N2225   1.157       .  T
C2222      N2226   1.157       .  T
C2223      N2228   1.157       .  T
C2224      N2227   1.157       .  T
C2233      C2234   1.406       .  A
C2233      C2238   1.397       .  A
C2233      C2247   1.444       .  S
C2234      C2239   1.481       .  S
C2234      C2235   1.402       .  A
C2235      C2236   1.401       .  A
C2235      H2254   1.086       .  S
C2236      C2237   1.417       .  A
C2236      C2248   1.444       .  S
C2237      C2238   1.408       .  A
C2238      H2253   1.085       .  S
C2239      C2240   1.401       .  A
C2239      C2244   1.408       .  A
C2240      C2241   1.398       .  A
C2240      H2255   1.085       .  S
C2241      C2242   1.415       .  A
C2241      C2245   1.444       .  S
C2242      C2243   1.407       .  A
C2243      C2244   1.402       .  A
C2243      H2256   1.084       .  S
C2244      C2246   1.444       .  S
C2245      N2249   1.157       .  T
C2246      N2250   1.157       .  T
C2247      N2252   1.157       .  T
C2248      N2251   1.158       .  T
C2257      C2258   1.409       .  A
C2257      C2262   1.397       .  A
C2257      C2271   1.445       .  S
C2258      C2263   1.480       .  S
C2258      C2259   1.400       .  A
C2259      C2260   1.401       .  A
C2259      H2278   1.085       .  S
C2260      C2261   1.417       .  A
C2260      C2272   1.444       .  S
C2261      C2262   1.405       .  A
C2262      H2277   1.084       .  S
C2263      C2264   1.400       .  A
C2263      C2268   1.408       .  A
C2264      C2265   1.402       .  A
C2264      H2279   1.085       .  S
C2265      C2266   1.418       .  A
C2265      C2269   1.443       .  S
C2266      C2267   1.406       .  A
C2267      C2268   1.397       .  A
C2267      H2280   1.085       .  S
C2268      C2270   1.445       .  S
C2269      N2273   1.157       .  T
C2270      N2274   1.157       .  T
C2271      N2276   1.157       .  T
C2272      N2275   1.157       .  T
C2281      C2282   1.408       .  A
C2281      C2286   1.400       .  A
C2281      C2295   1.444       .  S
C2282      C2287   1.481       .  S
C2282      C2283   1.399       .  A
C2283      C2284   1.402       .  A
C2283      H2302   1.085       .  S
C2284      C2285   1.419       .  A
C2284      C2296   1.444       .  S
C2285      C2286   1.407       .  A
C2286      H2301   1.085       .  S
C2287      C2288   1.400       .  A
C2287      C2292   1.405       .  A
C2288      C2289   1.401       .  A
C2288      H2303   1.085       .  S
C2289      C2290   1.418       .  A
C2289      C2293   1.444       .  S
C2290      C2291   1.410       .  A
C2291      C2292   1.401       .  A
C2291      H2304   1.084       .  S
C2292      C2294   1.443       .  S
C2293      N2297   1.157       .  T
C2294      N2298   1.157       .  T
C2295      N2300   1.157       .  T
C2296      N2299   1.157       .  T
C2305      C2306   1.406       .  A
C2305      C2310   1.397       .  A
C2305      C2319   1.444       .  S
C2306      C2311   1.472       .  S
C2306      C2307   1.398       .  A
C2307      C2308   1.397       .  A
C2307      H2326   1.085       .  S
C2308      C2309   1.419       .  A
C2308      C2320   1.444       .  S
C2309      C2310   1.407       .  A
C2310      H2325   1.085       .  S
C2311      C2312   1.402       .  A
C2311      C2316   1.406       .  A
C2312      C2313   1.403       .  A
C2312      H2327   1.085       .  S
C2313      C2314   1.415       .  A
C2313      C2317   1.443       .  S
C2314      C2315   1.405       .  A
C2315      C2316   1.389       .  A
C2315      H2328   1.085       .  S
C2316      C2318   1.445       .  S
C2317      N2321   1.157       .  T
C2318      N2322   1.157       .  T
C2319      N2324   1.157       .  T
C2320      N2323   1.157       .  T
C2329      C2330   1.404       .  A
C2329      C2334   1.395       .  A
C2329      C2343   1.444       .  S
C2330      C2335   1.474   1_455  S
C2330      C2331   1.400       .  A
C2331      C2332   1.400       .  A
C2331      H2350   1.085       .  S
C2332      C2333   1.418       .  A
C2332      C2344   1.444       .  S
C2333      C2334   1.407       .  A
C2334      H2349   1.084       .  S
C2335      C2336   1.400       .  A
C2335      C2340   1.405       .  A
C2336      C2337   1.399       .  A
C2336      H2351   1.085       .  S
C2337      C2338   1.418       .  A
C2337      C2341   1.444       .  S
C2338      C2339   1.407       .  A
C2339      C2340   1.395       .  A
C2339      H2352   1.085       .  S
C2340      C2342   1.444       .  S
C2341      N2345   1.157       .  T
C2342      N2346   1.157       .  T
C2343      N2348   1.157       .  T
C2344      N2347   1.158       .  T
C2353      C2354   1.407       .  A
C2353      C2358   1.399       .  A
C2353      C2367   1.444       .  S
C2354      C2359   1.480       .  S
C2354      C2355   1.401       .  A
C2355      C2356   1.402       .  A
C2355      H2374   1.085       .  S
C2356      C2357   1.417       .  A
C2356      C2368   1.444       .  S
C2357      C2358   1.407       .  A
C2358      H2373   1.085       .  S
C2359      C2360   1.400       .  A
C2359      C2364   1.408       .  A
C2360      C2361   1.403       .  A
C2360      H2375   1.085       .  S
C2361      C2362   1.418       .  A
C2361      C2365   1.444       .  S
C2362      C2363   1.406       .  A
C2363      C2364   1.397       .  A
C2363      H2376   1.085       .  S
C2364      C2366   1.444       .  S
C2365      N2369   1.157       .  T
C2366      N2370   1.157       .  T
C2367      N2372   1.157       .  T
C2368      N2371   1.157       .  T
C2377      C2378   1.408       .  A
C2377      C2382   1.399       .  A
C2377      C2391   1.444       .  S
C2378      C2383   1.479       .  S
C2378      C2379   1.401       .  A
C2379      C2380   1.398       .  A
C2379      H2398   1.085       .  S
C2380      C2381   1.414       .  A
C2380      C2392   1.444       .  S
C2381      C2382   1.407       .  A
C2382      H2397   1.084       .  S
C2383      C2384   1.399       .  A
C2383      C2388   1.409       .  A
C2384      C2385   1.399       .  A
C2384      H2399   1.085       .  S
C2385      C2386   1.419       .  A
C2385      C2389   1.444       .  S
C2386      C2387   1.406       .  A
C2387      C2388   1.398       .  A
C2387      H2400   1.084       .  S
C2388      C2390   1.445       .  S
C2389      N2393   1.157       .  T
C2390      N2394   1.157       .  T
C2391      N2396   1.157       .  T
C2392      N2395   1.157       .  T
C2401      C2402   1.411       .  A
C2401      C2406   1.400       .  A
C2401      C2415   1.444       .  S
C2402      C2407   1.487       .  S
C2402      C2403   1.401       .  A
C2403      C2404   1.401       .  A
C2403      H2422   1.085       .  S
C2404      C2405   1.419       .  A
C2404      C2416   1.444       .  S
C2405      C2406   1.406       .  A
C2406      H2421   1.084       .  S
C2407      C2408   1.405       .  A
C2407      C2412   1.412       .  A
C2408      C2409   1.404       .  A
C2408      H2423   1.085       .  S
C2409      C2410   1.413       .  A
C2409      C2413   1.443       .  S
C2410      C2411   1.404       .  A
C2411      C2412   1.396       .  A
C2411      H2424   1.085       .  S
C2412      C2414   1.445       .  S
C2413      N2417   1.157       .  T
C2414      N2418   1.157       .  T
C2415      N2420   1.157       .  T
C2416      N2419   1.157       .  T
C2425      C2426   1.409       .  A
C2425      C2430   1.396       .  A
C2425      C2439   1.445       .  S
C2426      C2431   1.483       .  S
C2426      C2427   1.404       .  A
C2427      C2428   1.405       .  A
C2427      H2446   1.085       .  S
C2428      C2429   1.415       .  A
C2428      C2440   1.444       .  S
C2429      C2430   1.404       .  A
C2430      H2445   1.085       .  S
C2431      C2432   1.402       .  A
C2431      C2436   1.410       .  A
C2432      C2433   1.402       .  A
C2432      H2447   1.085       .  S
C2433      C2434   1.416       .  A
C2433      C2437   1.444       .  S
C2434      C2435   1.405       .  A
C2435      C2436   1.399       .  A
C2435      H2448   1.084       .  S
C2436      C2438   1.444       .  S
C2437      N2441   1.157       .  T
C2438      N2442   1.157       .  T
C2439      N2444   1.157       .  T
C2440      N2443   1.157       .  T
C2449      C2450   1.409       .  A
C2449      C2454   1.399       .  A
C2449      C2463   1.445       .  S
C2450      C2455   1.487   1_565  S
C2450      C2451   1.404       .  A
C2451      C2452   1.404       .  A
C2451      H2470   1.084       .  S
C2452      C2453   1.416       .  A
C2452      C2464   1.443       .  S
C2453      C2454   1.408       .  A
C2454      H2469   1.084       .  S
C2455      C2456   1.403       .  A
C2455      C2460   1.410       .  A
C2456      C2457   1.402       .  A
C2456      H2471   1.085       .  S
C2457      C2458   1.416       .  A
C2457      C2461   1.444       .  S
C2458      C2459   1.405       .  A
C2459      C2460   1.399       .  A
C2459      H2472   1.085       .  S
C2460      C2462   1.443       .  S
C2461      N2465   1.158       .  T
C2462      N2466   1.157   1_545  T
C2463      N2468   1.157       .  T
C2464      N2467   1.157       .  T
C2473      C2474   1.406       .  A
C2473      C2478   1.397       .  A
C2473      C2487   1.445       .  S
C2474      C2479   1.472       .  S
C2474      C2475   1.397       .  A
C2475      C2476   1.398       .  A
C2475      H2494   1.085       .  S
C2476      C2477   1.419       .  A
C2476      C2488   1.444       .  S
C2477      C2478   1.407       .  A
C2478      H2493   1.085       .  S
C2479      C2480   1.401       .  A
C2479      C2484   1.404       .  A
C2480      C2481   1.398       .  A
C2480      H2495   1.085       .  S
C2481      C2482   1.413       .  A
C2481      C2485   1.444       .  S
C2482      C2483   1.408       .  A
C2483      C2484   1.397       .  A
C2483      H2496   1.085       .  S
C2484      C2486   1.444       .  S
C2485      N2489   1.157       .  T
C2486      N2490   1.157       .  T
C2487      N2492   1.157       .  T
C2488      N2491   1.157       .  T
C2497      C2498   1.414       .  A
C2497      C2502   1.404       .  A
C2497      C2511   1.445       .  S
C2498      C2503   1.495       .  S
C2498      C2499   1.405       .  A
C2499      C2500   1.401       .  A
C2499      H2518   1.084       .  S
C2500      C2501   1.413       .  A
C2500      C2512   1.444       .  S
C2501      C2502   1.407       .  A
C2502      H2517   1.084       .  S
C2503      C2504   1.404       .  A
C2503      C2508   1.413       .  A
C2504      C2505   1.400       .  A
C2504      H2519   1.085       .  S
C2505      C2506   1.415       .  A
C2505      C2509   1.444       .  S
C2506      C2507   1.407       .  A
C2507      C2508   1.403       .  A
C2507      H2520   1.085       .  S
C2508      C2510   1.444       .  S
C2509      N2513   1.157       .  T
C2510      N2514   1.157       .  T
C2511      N2516   1.157       .  T
C2512      N2515   1.157       .  T
C2521      C2522   1.407       .  A
C2521      C2526   1.402       .  A
C2521      C2535   1.444       .  S
C2522      C2527   1.483       .  S
C2522      C2523   1.401       .  A
C2523      C2524   1.401       .  A
C2523      H2542   1.085       .  S
C2524      C2525   1.417       .  A
C2524      C2536   1.444       .  S
C2525      C2526   1.410       .  A
C2526      H2541   1.084       .  S
C2527      C2528   1.400       .  A
C2527      C2532   1.408       .  A
C2528      C2529   1.403       .  A
C2528      H2543   1.085       .  S
C2529      C2530   1.420       .  A
C2529      C2533   1.444       .  S
C2530      C2531   1.408       .  A
C2531      C2532   1.401       .  A
C2531      H2544   1.084       .  S
C2532      C2534   1.444       .  S
C2533      N2537   1.157       .  T
C2534      N2538   1.157       .  T
C2535      N2540   1.157       .  T
C2536      N2539   1.157       .  T
C2545      C2546   1.408       .  A
C2545      C2550   1.402       .  A
C2545      C2559   1.444       .  S
C2546      C2551   1.486       .  S
C2546      C2547   1.402       .  A
C2547      C2548   1.402       .  A
C2547      H2566   1.085       .  S
C2548      C2549   1.417       .  A
C2548      C2560   1.443       .  S
C2549      C2550   1.409       .  A
C2550      H2565   1.085       .  S
C2551      C2552   1.401       .  A
C2551      C2556   1.410       .  A
C2552      C2553   1.397       .  A
C2552      H2567   1.085       .  S
C2553      C2554   1.415       .  A
C2553      C2557   1.444       .  S
C2554      C2555   1.408       .  A
C2555      C2556   1.406       .  A
C2555      H2568   1.084       .  S
C2556      C2558   1.443       .  S
C2557      N2561   1.157       .  T
C2558      N2562   1.157       .  T
C2559      N2564   1.157       .  T
C2560      N2563   1.157       .  T
C2569      C2570   1.410       .  A
C2569      C2574   1.398       .  A
C2569      C2583   1.445       .  S
C2570      C2575   1.486       .  S
C2570      C2571   1.404       .  A
C2571      C2572   1.403       .  A
C2571      H2590   1.081       .  S
C2572      C2573   1.416       .  A
C2572      C2584   1.444       .  S
C2573      C2574   1.406       .  A
C2574      H2589   1.081       .  S
C2575      C2576   1.402       .  A
C2575      C2580   1.412       .  A
C2576      C2577   1.400       .  A
C2576      H2591   1.086       .  S
C2577      C2578   1.416       .  A
C2577      C2581   1.444       .  S
C2578      C2579   1.404       .  A
C2579      C2580   1.398       .  A
C2579      H2592   1.086       .  S
C2580      C2582   1.445       .  S
C2581      N2585   1.157       .  T
C2582      N2586   1.157       .  T
C2583      N2588   1.157       .  T
C2584      N2587   1.157       .  T
C2593      C2594   1.406       .  A
C2593      C2598   1.399       .  A
C2593      C2607   1.444       .  S
C2594      C2599   1.478   1_655  S
C2594      C2595   1.402       .  A
C2595      C2596   1.399       .  A
C2595      H2614   1.085       .  S
C2596      C2597   1.414       .  A
C2596      C2608   1.444       .  S
C2597      C2598   1.408       .  A
C2598      H2613   1.084       .  S
C2599      C2600   1.401       .  A
C2599      C2604   1.408       .  A
C2600      C2601   1.400       .  A
C2600      H2615   1.085       .  S
C2601      C2602   1.416       .  A
C2601      C2605   1.444       .  S
C2602      C2603   1.405       .  A
C2603      C2604   1.395       .  A
C2603      H2616   1.085       .  S
C2604      C2606   1.444       .  S
C2605      N2609   1.157       .  T
C2606      N2610   1.157   1_455  T
C2607      N2612   1.157       .  T
C2608      N2611   1.157       .  T
C2617      C2618   1.408       .  A
C2617      C2622   1.400       .  A
C2617      C2631   1.444       .  S
C2618      C2623   1.480       .  S
C2618      C2619   1.399       .  A
C2619      C2620   1.401       .  A
C2619      H2638   1.085       .  S
C2620      C2621   1.418       .  A
C2620      C2632   1.444       .  S
C2621      C2622   1.408       .  A
C2622      H2637   1.085       .  S
C2623      C2624   1.402       .  A
C2623      C2628   1.406       .  A
C2624      C2625   1.403       .  A
C2624      H2639   1.085       .  S
C2625      C2626   1.416       .  A
C2625      C2629   1.444       .  S
C2626      C2627   1.408       .  A
C2627      C2628   1.398       .  A
C2627      H2640   1.084       .  S
C2628      C2630   1.444       .  S
C2629      N2633   1.157       .  T
C2630      N2634   1.157       .  T
C2631      N2636   1.157       .  T
C2632      N2635   1.157       .  T
C2641      C2642   1.410       .  A
C2641      C2646   1.397       .  A
C2641      C2655   1.445       .  S
C2642      C2647   1.485       .  S
C2642      C2643   1.402       .  A
C2643      C2644   1.402       .  A
C2643      H2662   1.085       .  S
C2644      C2645   1.419       .  A
C2644      C2656   1.444       .  S
C2645      C2646   1.406       .  A
C2646      H2661   1.085       .  S
C2647      C2648   1.401       .  A
C2647      C2652   1.412       .  A
C2648      C2649   1.401       .  A
C2648      H2663   1.085       .  S
C2649      C2650   1.417       .  A
C2649      C2653   1.444       .  S
C2650      C2651   1.406       .  A
C2651      C2652   1.401       .  A
C2651      H2664   1.085       .  S
C2652      C2654   1.445       .  S
C2653      N2657   1.157       .  T
C2654      N2658   1.157       .  T
C2655      N2660   1.157       .  T
C2656      N2659   1.157       .  T
C2665      C2666   1.409       .  A
C2665      C2670   1.397       .  A
C2665      C2679   1.445       .  S
C2666      C2671   1.479       .  S
C2666      C2667   1.399       .  A
C2667      C2668   1.401       .  A
C2667      H2686   1.085       .  S
C2668      C2669   1.418       .  A
C2668      C2680   1.444       .  S
C2669      C2670   1.406       .  A
C2670      H2685   1.085       .  S
C2671      C2672   1.402       .  A
C2671      C2676   1.406       .  A
C2672      C2673   1.402       .  A
C2672      H2687   1.085       .  S
C2673      C2674   1.416       .  A
C2673      C2677   1.444       .  S
C2674      C2675   1.408       .  A
C2675      C2676   1.397       .  A
C2675      H2688   1.084       .  S
C2676      C2678   1.445       .  S
C2677      N2681   1.157       .  T
C2678      N2682   1.157       .  T
C2679      N2684   1.157       .  T
C2680      N2683   1.157       .  T
C2689      C2690   1.412       .  A
C2689      C2694   1.401       .  A
C2689      C2703   1.445       .  S
C2690      C2695   1.487       .  S
C2690      C2691   1.402       .  A
C2691      C2692   1.400       .  A
C2691      H2710   1.085       .  S
C2692      C2693   1.417       .  A
C2692      C2704   1.444       .  S
C2693      C2694   1.405       .  A
C2694      H2709   1.085       .  S
C2695      C2696   1.405       .  A
C2695      C2700   1.412       .  A
C2696      C2697   1.405       .  A
C2696      H2711   1.085       .  S
C2697      C2698   1.416       .  A
C2697      C2701   1.444       .  S
C2698      C2699   1.402       .  A
C2699      C2700   1.395       .  A
C2699      H2712   1.085       .  S
C2700      C2702   1.445       .  S
C2701      N2705   1.158       .  T
C2702      N2706   1.157       .  T
C2703      N2708   1.157       .  T
C2704      N2707   1.157       .  T
C2713      C2714   1.408       .  A
C2713      C2718   1.402       .  A
C2713      C2727   1.443       .  S
C2714      C2719   1.479       .  S
C2714      C2715   1.401       .  A
C2715      C2716   1.397       .  A
C2715      H2734   1.085       .  S
C2716      C2717   1.412       .  A
C2716      C2728   1.445       .  S
C2717      C2718   1.405       .  A
C2718      H2733   1.085       .  S
C2719      C2720   1.399       .  A
C2719      C2724   1.406       .  A
C2720      C2721   1.398       .  A
C2720      H2735   1.086       .  S
C2721      C2722   1.418       .  A
C2721      C2725   1.444       .  S
C2722      C2723   1.409       .  A
C2723      C2724   1.401       .  A
C2723      H2736   1.085       .  S
C2724      C2726   1.444       .  S
C2725      N2729   1.157       .  T
C2726      N2730   1.157       .  T
C2727      N2732   1.157       .  T
C2728      N2731   1.157       .  T
C2737      C2738   1.409       .  A
C2737      C2742   1.399       .  A
C2737      C2751   1.445       .  S
C2738      C2743   1.481       .  S
C2738      C2739   1.399       .  A
C2739      C2740   1.400       .  A
C2739      H2758   1.085       .  S
C2740      C2741   1.419       .  A
C2740      C2752   1.443       .  S
C2741      C2742   1.407       .  A
C2742      H2757   1.084       .  S
C2743      C2744   1.400       .  A
C2743      C2748   1.408       .  A
C2744      C2745   1.398   1_554  A
C2744      H2759   1.085       .  S
C2745      C2746   1.417       .  A
C2745      C2749   1.444       .  S
C2746      C2747   1.407       .  A
C2747      C2748   1.400   1_556  A
C2747      H2760   1.084       .  S
C2748      C2750   1.444       .  S
C2749      N2753   1.157       .  T
C2750      N2754   1.157       .  T
C2751      N2756   1.157       .  T
C2752      N2755   1.157       .  T
C2761      C2762   1.408       .  A
C2761      C2766   1.400       .  A
C2761      C2775   1.444       .  S
C2762      C2767   1.487       .  S
C2762      C2763   1.403       .  A
C2763      C2764   1.403       .  A
C2763      H2782   1.085       .  S
C2764      C2765   1.416       .  A
C2764      C2776   1.443       .  S
C2765      C2766   1.409       .  A
C2766      H2781   1.084       .  S
C2767      C2768   1.401       .  A
C2767      C2772   1.411       .  A
C2768      C2769   1.402       .  A
C2768      H2783   1.085       .  S
C2769      C2770   1.418       .  A
C2769      C2773   1.444       .  S
C2770      C2771   1.407       .  A
C2771      C2772   1.401       .  A
C2771      H2784   1.085       .  S
C2772      C2774   1.445       .  S
C2773      N2777   1.157       .  T
C2774      N2778   1.157       .  T
C2775      N2780   1.157       .  T
C2776      N2779   1.157       .  T
C2785      C2786   1.412       .  A
C2785      C2790   1.404       .  A
C2785      C2799   1.444       .  S
C2786      C2791   1.489       .  S
C2786      C2787   1.403       .  A
C2787      C2788   1.397       .  A
C2787      H2806   1.084       .  S
C2788      C2789   1.412       .  A
C2788      C2800   1.445       .  S
C2789      C2790   1.406       .  A
C2790      H2805   1.084       .  S
C2791      C2792   1.404       .  A
C2791      C2796   1.410       .  A
C2792      C2793   1.401       .  A
C2792      H2807   1.085       .  S
C2793      C2794   1.416       .  A
C2793      C2797   1.444       .  S
C2794      C2795   1.408       .  A
C2795      C2796   1.400       .  A
C2795      H2808   1.085       .  S
C2796      C2798   1.444       .  S
C2797      N2801   1.157       .  T
C2798      N2802   1.157       .  T
C2799      N2804   1.157       .  T
C2800      N2803   1.157       .  T
C2809      C2810   1.408       .  A
C2809      C2814   1.399       .  A
C2809      C2823   1.444       .  S
C2810      C2815   1.481       .  S
C2810      C2811   1.400       .  A
C2811      C2812   1.402       .  A
C2811      H2830   1.085       .  S
C2812      C2813   1.419       .  A
C2812      C2824   1.444       .  S
C2813      C2814   1.407       .  A
C2814      H2829   1.084       .  S
C2815      C2816   1.402       .  A
C2815      C2820   1.409       .  A
C2816      C2817   1.403       .  A
C2816      H2831   1.085       .  S
C2817      C2818   1.415       .  A
C2817      C2821   1.444       .  S
C2818      C2819   1.405       .  A
C2819      C2820   1.398       .  A
C2819      H2832   1.085       .  S
C2820      C2822   1.445       .  S
C2821      N2825   1.157       .  T
C2822      N2826   1.157       .  T
C2823      N2828   1.157       .  T
C2824      N2827   1.157       .  T
C2833      C2834   1.408       .  A
C2833      C2838   1.400       .  A
C2833      C2847   1.444       .  S
C2834      C2839   1.481       .  S
C2834      C2835   1.399       .  A
C2835      C2836   1.400       .  A
C2835      H2854   1.085       .  S
C2836      C2837   1.419       .  A
C2836      C2848   1.444       .  S
C2837      C2838   1.408       .  A
C2838      H2853   1.085       .  S
C2839      C2840   1.401       .  A
C2839      C2844   1.406       .  A
C2840      C2841   1.400       .  A
C2840      H2855   1.085       .  S
C2841      C2842   1.418       .  A
C2841      C2845   1.445       .  S
C2842      C2843   1.409       .  A
C2843      C2844   1.400       .  A
C2843      H2856   1.084       .  S
C2844      C2846   1.443       .  S
C2845      N2849   1.158       .  T
C2846      N2850   1.157       .  T
C2847      N2852   1.157       .  T
C2848      N2851   1.157       .  T
C2857      C2858   1.410       .  A
C2857      C2862   1.399       .  A
C2857      C2871   1.445       .  S
C2858      C2863   1.481       .  S
C2858      C2859   1.400       .  A
C2859      C2860   1.399       .  A
C2859      H2878   1.085       .  S
C2860      C2861   1.419       .  A
C2860      C2872   1.444       .  S
C2861      C2862   1.406       .  A
C2862      H2877   1.084       .  S
C2863      C2864   1.402       .  A
C2863      C2868   1.410       .  A
C2864      C2865   1.401       .  A
C2864      H2879   1.085       .  S
C2865      C2866   1.416       .  A
C2865      C2869   1.444       .  S
C2866      C2867   1.405       .  A
C2867      C2868   1.396       .  A
C2867      H2880   1.085       .  S
C2868      C2870   1.445       .  S
C2869      N2873   1.157       .  T
C2870      N2874   1.157       .  T
C2871      N2876   1.157       .  T
C2872      N2875   1.157       .  T
C2881      C2882   1.409       .  A
C2881      C2886   1.396       .  A
C2881      C2895   1.445       .  S
C2882      C2887   1.482       .  S
C2882      C2883   1.401       .  A
C2883      C2884   1.405       .  A
C2883      H2902   1.085       .  S
C2884      C2885   1.418       .  A
C2884      C2896   1.443       .  S
C2885      C2886   1.406       .  A
C2886      H2901   1.084       .  S
C2887      C2888   1.399       .  A
C2887      C2892   1.408       .  A
C2888      C2889   1.400       .  A
C2888      H2903   1.086       .  S
C2889      C2890   1.419       .  A
C2889      C2893   1.444       .  S
C2890      C2891   1.408       .  A
C2891      C2892   1.402       .  A
C2891      H2904   1.085       .  S
C2892      C2894   1.444       .  S
C2893      N2897   1.157       .  T
C2894      N2898   1.157       .  T
C2895      N2900   1.157       .  T
C2896      N2899   1.157       .  T
C2905      C2906   1.408       .  A
C2905      C2910   1.398       .  A
C2905      C2919   1.444       .  S
C2906      C2911   1.482   1_565  S
C2906      C2907   1.400       .  A
C2907      C2908   1.402       .  A
C2907      H2926   1.085       .  S
C2908      C2909   1.420       .  A
C2908      C2920   1.445       .  S
C2909      C2910   1.407       .  A
C2910      H2925   1.085       .  S
C2911      C2912   1.401       .  A
C2911      C2916   1.407       .  A
C2912      C2913   1.402       .  A
C2912      H2927   1.085   1_545  S
C2913      C2914   1.418       .  A
C2913      C2917   1.444       .  S
C2914      C2915   1.408       .  A
C2915      C2916   1.399       .  A
C2915      H2928   1.084       .  S
C2916      C2918   1.444       .  S
C2917      N2921   1.157       .  T
C2918      N2922   1.157       .  T
C2919      N2924   1.157       .  T
C2920      N2923   1.158       .  T
