geometry optimzed in LAMMPS
_audit_creation_date              2020-12-01 
_audit_creation_method            'lammps2cif' 
_symmetry_space_group_name_H-M    'P1' 
_symmetry_Int_Tables_number       1 
_symmetry_cell_setting            triclinic 
loop_ 
_symmetry_equiv_pos_as_xyz 
  x,y,z 
_cell_length_a                    34.05536747 
_cell_length_b                    34.00993325083163 
_cell_length_c                    33.56382531468544 
_cell_angle_alpha                 87.10490167328486 
_cell_angle_beta                  91.70360828057677 
_cell_angle_gamma                 94.59353630484226 
loop_ 
_atom_site_label 
_atom_site_type_symbol 
_atom_site_fract_x 
_atom_site_fract_y 
_atom_site_fract_z 
_atom_site_charge 
N1          N  0.95588016  0.04284679  0.49894648    -0.35900
N2          N  0.95989225  0.95569012  0.50006615    -0.56500
N3          N  0.04494984  0.96690634  0.50030025    -0.35900
N4          N  0.04106703  0.05357149  0.50289141    -0.56500
C5          C  0.91802528  0.02960050  0.50629940     0.27700
C6          C  0.96073567  0.08145265  0.50832649     0.27700
C7          C  0.04037493  0.92687604  0.50557282     0.27700
C8          C  0.08347206  0.97839799  0.50721184     0.27700
C9          C  0.92095770  0.95817118  0.49206479     0.36300
C10         C  0.96766905  0.91811551  0.49328214     0.36300
C11         C  0.03318151  0.09213396  0.49832805     0.36300
C12         C  0.08037956  0.05219938  0.49828991     0.36300
C13         C  0.89854735  0.06016736  0.52047593    -0.21200
C14         C  0.92532629  0.09283979  0.52145104    -0.21200
C15         C  0.07658286  0.91279552  0.51572757    -0.21200
C16         C  0.10368361  0.94513585  0.51674090    -0.21200
C17         C  0.90393967  0.92190641  0.48057104    -0.22300
C18         C  0.93342238  0.89661386  0.48141840    -0.22300
C19         C  0.06777020  0.11534755  0.49104185    -0.22300
C20         C  0.09754423  0.09020136  0.49117903    -0.22300
C21         C  0.89977023  0.99169670  0.49763040    -0.17600
C22         C  0.99585347  0.10699594  0.50400128    -0.17600
C23         C  0.10156320  0.01760015  0.50241126    -0.17600
C24         C  0.00503363  0.90250654  0.49850941    -0.17600
H25         H  0.86793308  0.05923110  0.52853943     0.15300
H26         H  0.91934210  0.12174414  0.53071444     0.15300
H27         H  0.08300465  0.88229166  0.52105052     0.15300
H28         H  0.13495822  0.94411055  0.52298942     0.15300
H29         H  0.87334963  0.91432253  0.47256110     0.13600
H30         H  0.92999803  0.86592354  0.47393347     0.13600
H31         H  0.07132703  0.14718777  0.48689627     0.13600
H32         H  0.12843955  0.09898482  0.48688566     0.13600
H33         H  0.97574336  0.02752888  0.48413698     0.26800
H34         H  0.02413127  0.98505011  0.48831033     0.26800
O35         O  0.98449084  0.47221519  0.59263795    -0.80200
O36         O  0.03775184  0.47946417  0.42383185    -0.64900
O37         O  0.02582099  0.50661354  0.53080990    -1.11500
C38         C  0.89955959  0.53595903  0.48014729     1.06700
O39         O  0.01894854  0.53836133  0.40710491    -0.78100
O40         O  0.98069948  0.58910846  0.44864286    -0.65700
Ni41       Ni  0.03660241  0.47048342  0.57386988     1.34900
C42         C  0.98891784  0.60078419  0.48341440     0.85400
O43         O  0.08631160  0.47986284  0.48915696    -0.78600
O44         O  0.08934179  0.46907983  0.55597360    -0.88900
C45         C  0.03018328  0.50568445  0.39718639     0.85000
O46         O  0.02152607  0.42021118  0.55171369    -0.67100
O47         O  0.91460827  0.53929439  0.44562600    -0.86400
C48         C  0.01525145  0.40950986  0.51627064     0.85800
C49         C  0.10539106  0.47333536  0.52181992     1.07400
H50         H  0.96284163  0.47973059  0.46762208     0.39200
O51         O  0.97927037  0.50384816  0.47077835    -1.09100
O52         O  0.98976155  0.57650208  0.51379245    -0.65700
Ni53       Ni  0.97251712  0.52022156  0.52309712     1.26300
O54         O  0.01630624  0.43443470  0.48641783    -0.65900
O55         O  0.91887331  0.53104198  0.51294522    -0.78200
C56         C  0.97446137  0.50498316  0.60365244     0.85200
O57         O  0.96789581  0.53212538  0.57764754    -0.65400
Ni58       Ni  0.96705507  0.53877404  0.42710107     1.27400
Ni59       Ni  0.03282672  0.49087683  0.47843125     1.26100
H60         H  0.04276220  0.53077868  0.53471170     0.39700
O61         O  0.41059649  0.01250110  0.46942311    -0.80200
O62         O  0.57656711  0.95763886  0.48790507    -0.64900
O63         O  0.47063903  0.97872588  0.51085162    -1.11500
C64         C  0.53211336  0.10914501  0.52292313     1.06700
O65         O  0.59186499  0.98505101  0.54408194    -0.81300
O66         O  0.55144638  0.03132749  0.58798983    -0.65700
Ni67       Ni  0.42749836  0.96046951  0.47748393     1.34900
C68         C  0.51584399  0.02849518  0.59841228     0.85400
O69         O  0.50812838  0.91087881  0.49542846    -0.78600
O70         O  0.44217605  0.90735742  0.48551531    -0.88900
C71         C  0.60273302  0.96837923  0.51375550     0.85000
O72         O  0.45143810  0.96668353  0.42634322    -0.67100
O73         O  0.56335277  0.09163877  0.53166121    -0.86400
C74         C  0.48673891  0.97292343  0.41519554     0.85800
C75         C  0.47440873  0.89146431  0.49327162     1.07400
H76         H  0.54009121  0.03435532  0.47665579     0.39200
O77         O  0.53396088  0.02233961  0.50268243    -1.09100
O78         O  0.48707402  0.02796700  0.57306711    -0.65700
Ni79       Ni  0.48215022  0.03483603  0.51488123     1.26300
O80         O  0.51607927  0.97461948  0.43984402    -0.65900
O81         O  0.49805442  0.09074877  0.51719396    -0.78200
C82         C  0.40051783  0.03071580  0.49901847     0.85200
O83         O  0.42729241  0.04401611  0.52337490    -0.65400
Ni84       Ni  0.57660808  0.03799144  0.53768171     1.27400
Ni85       Ni  0.52239999  0.96660748  0.49774378     1.26100
H86         H  0.46545879  0.96716892  0.53724664     0.39700
N87         N  0.49128813  0.95596221  0.05192690    -0.35900
N88         N  0.49661042  0.04024936  0.05022977    -0.56500
N89         N  0.49561208  0.04177553  0.96116775    -0.35900
N90         N  0.49480610  0.95784834  0.96288660    -0.56500
C91         C  0.49665736  0.96160095  0.09160801     0.27700
C92         C  0.49857921  0.91824148  0.04588087     0.27700
C93         C  0.50542644  0.08013152  0.96810578     0.27700
C94         C  0.50236773  0.03677054  0.92213873     0.27700
C95         C  0.49014714  0.03382134  0.08978967     0.36300
C96         C  0.49401285  0.07922258  0.04192437     0.36300
C97         C  0.48951942  0.91844143  0.97092136     0.36300
C98         C  0.48939195  0.96400290  0.92284642     0.36300
C99         C  0.50678316  0.92682254  0.11101550    -0.21200
C100        C  0.50812785  0.89956718  0.08227971    -0.21200
C101        C  0.51835301  0.09980700  0.93305053    -0.21200
C102        C  0.51655649  0.07243981  0.90414155    -0.21200
C103        C  0.48419671  0.06901483  0.10682791    -0.22300
C104        C  0.48667741  0.09777978  0.07656252    -0.22300
C105        C  0.48135050  0.89941213  0.93562560    -0.22300
C106        C  0.48103191  0.92823987  0.90529721    -0.22300
C107        C  0.49160859  0.99690053  0.11105938    -0.17600
C108        C  0.49381013  0.89902080  0.00918886    -0.17600
C109        C  0.49421489  0.00135622  0.90184378    -0.17600
C110        C  0.49944147  0.09882154  0.00396819    -0.17600
H111        H  0.51246353  0.92153152  0.14265378     0.15300
H112        H  0.51473298  0.86913828  0.08778743     0.15300
H113        H  0.52748193  0.13089392  0.92852922     0.15300
H114        H  0.52419328  0.07830607  0.87321687     0.15300
H115        H  0.47881985  0.07351692  0.13782932     0.13600
H116        H  0.48351425  0.12887411  0.07974134     0.13600
H117        H  0.47618948  0.86795283  0.93206487     0.13600
H118        H  0.47573082  0.92339528  0.87390436     0.13600
H119        H  0.47918721  0.97506145  0.03076432     0.26800
H120        H  0.48040793  0.02181101  0.98067865     0.26800
N121        N  0.95378026  0.50102697  0.04377798    -0.35900
N122        N  0.04250345  0.49868403  0.04330865    -0.56500
N123        N  0.03995558  0.50488168  0.95866625    -0.35900
N124        N  0.95068263  0.50183294  0.95902063    -0.56500
C125        C  0.96203339  0.49371104  0.08292317     0.27700
C126        C  0.91387143  0.49671049  0.03832512     0.27700
C127        C  0.07879093  0.49872611  0.96457955     0.27700
C128        C  0.03051771  0.49883845  0.91996804     0.27700
C129        C  0.03693612  0.50024692  0.08282325     0.36300
C130        C  0.08206374  0.50270574  0.03815291     0.36300
C131        C  0.91172399  0.50553014  0.96426748     0.36300
C132        C  0.95702755  0.50721723  0.91950871     0.36300
C133        C  0.92691136  0.48542354  0.10285103    -0.21200
C134        C  0.89668116  0.48769219  0.07487186    -0.21200
C135        C  0.09428328  0.48933787  0.92893720    -0.21200
C136        C  0.06393846  0.48932121  0.90086339    -0.21200
C137        C  0.07327549  0.50446627  0.10285594    -0.22300
C138        C  0.10170612  0.50591820  0.07463473    -0.22300
C139        C  0.89309630  0.51257021  0.92771186    -0.22300
C140        C  0.92165131  0.51369853  0.89945246    -0.22300
C141        C  0.00001086  0.49654363  0.10192509    -0.17600
C142        C  0.89242699  0.50099533  0.00144759    -0.17600
C143        C  0.99340899  0.50396415  0.90053556    -0.17600
C144        C  0.10081486  0.50209051  0.00107501    -0.17600
H145        H  0.92333452  0.47892391  0.13449559     0.15300
H146        H  0.86555323  0.48295741  0.08080622     0.15300
H147        H  0.12429186  0.48301162  0.92368981     0.15300
H148        H  0.06634629  0.48314920  0.86974919     0.15300
H149        H  0.07886798  0.50625939  0.13465487     0.13600
H150        H  0.13322178  0.50895715  0.08036247     0.13600
H151        H  0.86213372  0.51624697  0.92194642     0.13600
H152        H  0.91672862  0.51826909  0.86760685     0.13600
H153        H  0.97448797  0.51177510  0.02322502     0.26800
H154        H  0.02172345  0.51680116  0.97826058     0.26800
O155        O  0.53658723  0.59230465  0.99275194    -0.80200
O156        O  0.51331317  0.41507165  0.97087903    -0.64900
O157        O  0.49645910  0.52433526  0.96680973    -1.11500
C158        C  0.46729014  0.49339038  0.10405154     1.06700
O159        O  0.45390404  0.40638206  0.99511501    -0.78100
O160        O  0.40896699  0.45626981  0.03042005    -0.65700
Ni161      Ni  0.53440455  0.56291411  0.94492520     1.34900
C162        C  0.40064493  0.49032189  0.01732745     0.85400
O163        O  0.51735052  0.47175471  0.91099984    -0.78600
O164        O  0.53252681  0.53632767  0.89512965    -0.88900
C165        C  0.48461439  0.39212659  0.98350489     0.85000
O166        O  0.58266647  0.54028544  0.96150380    -0.67100
O167        O  0.46077798  0.45764367  0.09398795    -0.86400
C168        C  0.59094796  0.50640620  0.97538420     0.85800
C169        C  0.52462158  0.50052740  0.88553637     1.07400
H170        H  0.51918542  0.46886408  0.03847830     0.39200
O171        O  0.49518075  0.47149550  0.02275793    -1.09100
O172        O  0.42732919  0.51808144  0.00954581    -0.65700
Ni173      Ni  0.48411071  0.52503699  0.02238005     1.26300
O174        O  0.56436900  0.47786782  0.98064002    -0.65900
O175        O  0.47342866  0.52261845  0.07874917    -0.78200
C176        C  0.50608926  0.60454871  0.00762873     0.85200
O177        O  0.47805099  0.58037217  0.01962327    -0.65400
Ni178      Ni  0.45726210  0.43281025  0.04398701     1.27400
Ni179      Ni  0.50746329  0.47048343  0.96738977     1.26100
H180        H  0.47245223  0.52689462  0.95120642     0.39700
O181        O  0.52186031  0.40811583  0.52593269    -0.80200
O182        O  0.46233399  0.57098004  0.51873723    -0.64900
O183        O  0.48235264  0.46819174  0.48889732    -1.11500
C184        C  0.60761858  0.53213362  0.46232464     1.06700
O185        O  0.48413378  0.59432688  0.46046093    -0.78100
O186        O  0.52275361  0.55401626  0.40961219    -0.65700
Ni187      Ni  0.46874091  0.42316190  0.52273378     1.34900
C188        C  0.51860135  0.51874109  0.39884896     0.85400
O189        O  0.41749486  0.50235486  0.51567956    -0.78600
O190        O  0.41490362  0.43588364  0.52129975    -0.88900
C191        C  0.46731832  0.59928355  0.49289696     0.85000
O192        O  0.47741010  0.44533086  0.57361412    -0.67100
O193        O  0.59007264  0.56379137  0.45645123    -0.86400
C194        C  0.48565448  0.47995636  0.58538553     0.85800
C195        C  0.39869138  0.46853885  0.52013087     1.07400
H196        H  0.53946952  0.53767202  0.51848189     0.39200
O197        O  0.52503781  0.53248309  0.49382792    -1.09100
O198        O  0.52392681  0.48902379  0.42243137    -0.65700
Ni199      Ni  0.53667473  0.48155269  0.47872420     1.26300
O200        O  0.48604918  0.50999499  0.56122585    -0.65900
O201        O  0.59058042  0.49786061  0.46965577    -0.78200
C202        C  0.54117994  0.40162728  0.49558682     0.85200
O203        O  0.54646211  0.42825708  0.46789016    -0.65400
Ni204      Ni  0.53666566  0.57736580  0.45893263     1.27400
Ni205      Ni  0.47126637  0.51856534  0.50539013     1.26100
H206        H  0.46832637  0.46398141  0.46383402     0.39700
C207        C  0.48244992  0.47641519  0.78229807    -0.11200
C208        C  0.51487813  0.48674781  0.75806304     0.11400
C209        C  0.55155612  0.49970231  0.77616241    -0.03000
C210        C  0.55400756  0.50312130  0.81801867    -0.05700
C211        C  0.52147834  0.49268905  0.84222402    -0.16500
C212        C  0.48518556  0.47855477  0.82415091     0.02400
C213        C  0.50892761  0.48473843  0.71375891     0.12400
C214        C  0.58805747  0.50914304  0.75143389     0.63000
H215        H  0.58141613  0.51401607  0.83225888     0.12400
C216        C  0.44895137  0.46726618  0.84883481     0.55100
H217        H  0.45461903  0.46705560  0.76793322     0.08200
C218        C  0.50497295  0.44847896  0.69463396    -0.05600
C219        C  0.49817365  0.44888100  0.65304512    -0.06400
C220        C  0.49494305  0.48410967  0.62936734    -0.15900
C221        C  0.49969925  0.52070049  0.64876846    -0.01500
C222        C  0.50581076  0.52002183  0.69070426    -0.09100
C223        C  0.50680551  0.40918860  0.71802999     0.65200
H224        H  0.49470651  0.42092182  0.63885064     0.10600
C225        C  0.49864305  0.56048424  0.62611341     0.63600
H226        H  0.50825296  0.54732390  0.70616690     0.08000
F227        F  0.45578614  0.43549971  0.87476215    -0.19500
F228        F  0.41620224  0.45656547  0.82521260    -0.15700
F229        F  0.44034295  0.49891584  0.87046468    -0.19200
F230        F  0.58246502  0.54025877  0.72433361    -0.22600
F231        F  0.59566992  0.47639950  0.73098849    -0.24000
F232        F  0.62094926  0.51955344  0.77497520    -0.18000
F233        F  0.46247459  0.56319760  0.60678715    -0.20500
F234        F  0.52837569  0.56486676  0.59865877    -0.21700
F235        F  0.50426831  0.59166913  0.65118815    -0.18900
F236        F  0.50914623  0.37824328  0.69313520    -0.18900
F237        F  0.47325977  0.40153951  0.74019741    -0.22800
F238        F  0.53956807  0.41012566  0.74338182    -0.24400
C239        C  0.46637529  0.52290681  0.29700186    -0.11200
C240        C  0.49005719  0.50065144  0.27501649     0.11400
C241        C  0.52322730  0.48411027  0.29364174    -0.03000
C242        C  0.53043956  0.48902366  0.33473611    -0.05700
C243        C  0.50726376  0.51217702  0.35659505    -0.16500
C244        C  0.47481161  0.52972259  0.33740147     0.02400
C245        C  0.48170190  0.49928508  0.23150048     0.12400
C246        C  0.55184860  0.46313887  0.26982456     0.63000
H247        H  0.55546849  0.47646326  0.34972675     0.12400
C248        C  0.44992721  0.55678500  0.35873973     0.55100
H249        H  0.44210161  0.53643780  0.28159411     0.08200
C250        C  0.45478817  0.47043173  0.21490542    -0.05600
C251        C  0.44924772  0.47104099  0.17318242    -0.06400
C252        C  0.46919671  0.49985287  0.14776886    -0.15900
C253        C  0.49380705  0.53059876  0.16510174    -0.01500
C254        C  0.49962899  0.52949668  0.20679882    -0.09100
C255        C  0.43197370  0.43935164  0.24115681     0.65200
H256        H  0.42962079  0.44835542  0.16000204     0.10600
C257        C  0.51429217  0.56428360  0.14024552     0.63600
H258        H  0.51874458  0.55213573  0.22073168     0.08000
F259        F  0.41564993  0.56388809  0.33727778    -0.19500
F260        F  0.47128853  0.59261398  0.36359696    -0.15700
F261        F  0.43931527  0.54004413  0.39566324    -0.19200
F262        F  0.56826530  0.48890649  0.24057968    -0.22600
F263        F  0.53256325  0.43114214  0.25188293    -0.24000
F264        F  0.58223614  0.44956546  0.29371092    -0.18000
F265        F  0.53715454  0.59023470  0.16347339    -0.20500
F266        F  0.48620148  0.58537838  0.12008215    -0.21700
F267        F  0.53877646  0.54966815  0.11334628    -0.18900
F268        F  0.40731443  0.41403328  0.21888823    -0.18900
F269        F  0.40906756  0.45753148  0.26692678    -0.22800
F270        F  0.45762071  0.41692153  0.26327901    -0.24400
C271        C  0.78151912  0.46521878  0.99824008    -0.11200
C272        C  0.76316170  0.50090849  0.99838961     0.11400
C273        C  0.78765426  0.53652240  0.00217307    -0.03000
C274        C  0.82933626  0.53533373  0.00343444    -0.05700
C275        C  0.84762219  0.49979270  0.00167716    -0.16500
C276        C  0.82317834  0.46401922  0.99972130     0.02400
C277        C  0.71856113  0.50018763  0.99268684     0.12400
C278        C  0.76975793  0.57573881  0.00483897     0.63000
H279        H  0.84817487  0.56238602  0.00548090     0.12400
C280        C  0.84121200  0.42467234  0.99889786     0.55100
H281        H  0.76275901  0.43811958  0.99616739     0.08200
C282        C  0.69999604  0.49868206  0.95423579    -0.05600
C283        C  0.65837653  0.49904952  0.95035460    -0.06400
C284        C  0.63412524  0.50046265  0.98341006    -0.15900
C285        C  0.65249983  0.50132411  0.02199520    -0.01500
C286        C  0.69428332  0.50079727  0.02599588    -0.09100
C287        C  0.72428186  0.49743831  0.91715294     0.65200
H288        H  0.64429423  0.49899897  0.92099880     0.10600
C289        C  0.62797458  0.50354404  0.05866124     0.63600
H290        H  0.70843352  0.50133679  0.05529712     0.08000
F291        F  0.86559997  0.42483292  0.96667996    -0.19500
F292        F  0.81273662  0.39352501  0.99566873    -0.15700
F293        F  0.86300503  0.41808429  0.03364087    -0.19200
F294        F  0.74600704  0.57432667  0.03764415    -0.22600
F295        F  0.74733898  0.58361169  0.97080989    -0.24000
F296        F  0.79836154  0.60669036  0.00882503    -0.18000
F297        F  0.65122940  0.50695905  0.09305691    -0.20500
F298        F  0.60284225  0.46969402  0.06301216    -0.21700
F299        F  0.60594203  0.53602641  0.05462117    -0.18900
F300        F  0.70088455  0.49627950  0.88273980    -0.18900
F301        F  0.74519411  0.46418009  0.91938223    -0.22800
F302        F  0.75042580  0.53061474  0.91394662    -0.24400
C303        C  0.21151087  0.53707865  0.00081865    -0.11200
C304        C  0.22941665  0.50116554  0.00413939     0.11400
C305        C  0.20479957  0.46535837  0.00649389    -0.03000
C306        C  0.16325929  0.46680203  0.00486826    -0.05700
C307        C  0.14539483  0.50272267  0.00096323    -0.16500
C308        C  0.16998820  0.53848646  0.99886889     0.02400
C309        C  0.27391699  0.50187467  0.00622985     0.12400
C310        C  0.22244980  0.42570829  0.01074334     0.63000
H311        H  0.14421050  0.43975661  0.00686810     0.12400
C312        C  0.15224802  0.57801959  0.99429922     0.55100
H313        H  0.23049681  0.56418849  0.99968701     0.08200
C314        C  0.29743588  0.50561211  0.97174503    -0.05600
C315        C  0.33886934  0.50275850  0.97595895    -0.06400
C316        C  0.35756885  0.49764923  0.01367342    -0.15900
C317        C  0.33421922  0.49713972  0.04817617    -0.01500
C318        C  0.29291837  0.49892022  0.04382467    -0.09100
C319        C  0.27861276  0.51320662  0.93081404     0.65200
H320        H  0.35686277  0.50402796  0.94980028     0.10600
C321        C  0.35318103  0.49558074  0.08969627     0.63600
H322        H  0.27487759  0.49749343  0.06996736     0.08000
F323        F  0.12994320  0.57980087  0.95924945    -0.19500
F324        F  0.18094522  0.60925183  0.99301164    -0.15700
F325        F  0.12843152  0.58260942  0.02611036    -0.19200
F326        F  0.24481294  0.42335223  0.04570167    -0.22600
F327        F  0.24618395  0.42138359  0.97880767    -0.24000
F328        F  0.19367427  0.39454536  0.01181936    -0.18000
F329        F  0.32627845  0.49983443  0.11898466    -0.20500
F330        F  0.38260201  0.52588986  0.09245580    -0.21700
F331        F  0.36919427  0.45979651  0.09722572    -0.18900
F332        F  0.30579896  0.51427403  0.90087742    -0.18900
F333        F  0.26225552  0.54919183  0.92951113    -0.22800
F334        F  0.24929709  0.48385090  0.92310683    -0.24400
C335        C  0.49883864  0.71275779  0.97869232    -0.11200
C336        C  0.49852446  0.72912332  0.01614463     0.11400
C337        C  0.49814592  0.70412967  0.05122469    -0.03000
C338        C  0.50096659  0.66337026  0.04750003    -0.05700
C339        C  0.50311049  0.64734596  0.01000334    -0.16500
C340        C  0.50103940  0.67208745  0.97495898     0.02400
C341        C  0.49842597  0.77268154  0.01698043     0.12400
C342        C  0.49396196  0.72031662  0.09209992     0.63000
H343        H  0.50164567  0.64374073  0.07378931     0.12400
C344        C  0.50018791  0.65533919  0.93380874     0.55100
H345        H  0.49785312  0.73238221  0.95229452     0.08200
C346        C  0.53331068  0.79776985  0.01139703    -0.05600
C347        C  0.53054660  0.83888079  0.00854789    -0.06400
C348        C  0.49424555  0.85520977  0.01128182    -0.15900
C349        C  0.45954720  0.83017817  0.01768196    -0.01500
C350        C  0.46219785  0.78906081  0.01996566    -0.09100
C351        C  0.57317872  0.78109847  0.00846844     0.65200
H352        H  0.55670595  0.85875551  0.00421237     0.10600
C353        C  0.41995932  0.84699921  0.02159657     0.63600
H354        H  0.43589162  0.76924214  0.02353528     0.08000
F355        F  0.49406728  0.68388337  0.90389537    -0.19500
F356        F  0.46996744  0.62579024  0.93110029    -0.15700
F357        F  0.53565053  0.63994334  0.92723481    -0.19200
F358        F  0.45772642  0.73566844  0.09402620    -0.22600
F359        F  0.52335666  0.74981720  0.09893169    -0.24000
F360        F  0.49638259  0.69128381  0.12232693    -0.18000
F361        F  0.39008579  0.81760611  0.02849752    -0.20500
F362        F  0.41056038  0.86815318  0.98684548    -0.21700
F363        F  0.42149663  0.87175473  0.05313050    -0.18900
F364        F  0.60345933  0.81066541  0.00515185    -0.18900
F365        F  0.57348665  0.75866313  0.97529823    -0.22800
F366        F  0.58072068  0.75761471  0.04221797    -0.24400
C367        C  0.46241556  0.20078490  0.98949427    -0.11200
C368        C  0.49745809  0.22460312  0.99480518     0.11400
C369        C  0.53317996  0.20744238  0.00454541    -0.03000
C370        C  0.53285016  0.16608313  0.00736810    -0.05700
C371        C  0.49788873  0.14223386  0.00118409    -0.16500
C372        C  0.46199840  0.15950913  0.99246410     0.02400
C373        C  0.49541184  0.26765718  0.99067621     0.12400
C374        C  0.57106100  0.23289246  0.01226544     0.63000
H375        H  0.55976170  0.15194321  0.01439023     0.12400
C376        C  0.42370523  0.13435268  0.98564556     0.55100
H377        H  0.43549503  0.21492320  0.98246115     0.08200
C378        C  0.50169174  0.28969129  0.95410853    -0.05600
C379        C  0.49800160  0.33047721  0.95308059    -0.06400
C380        C  0.48758151  0.34929352  0.98688590    -0.15900
C381        C  0.48150784  0.32727733  0.02353352    -0.01500
C382        C  0.48533231  0.28651780  0.02459436    -0.09100
C383        C  0.51218767  0.27225468  0.91540122     0.65200
H384        H  0.50284046  0.34780132  0.92537616     0.10600
C385        C  0.47231665  0.34668251  0.06166568     0.63600
H386        H  0.48043415  0.26882454  0.05201976     0.08000
F387        F  0.39182364  0.15710446  0.98069268    -0.19500
F388        F  0.41654177  0.10815309  0.01793141    -0.15700
F389        F  0.42624843  0.11338339  0.95171329    -0.19200
F390        F  0.56665158  0.25551835  0.04469677    -0.22600
F391        F  0.57981935  0.25762375  0.97924111    -0.24000
F392        F  0.60267786  0.21032746  0.02032110    -0.18000
F393        F  0.47319096  0.32057826  0.09465194    -0.20500
F394        F  0.43511053  0.36026676  0.05848128    -0.21700
F395        F  0.49992159  0.37790595  0.06839016    -0.18900
F396        F  0.54775771  0.29035835  0.90266532    -0.18900
F397        F  0.48336492  0.27949680  0.88666837    -0.22800
F398        F  0.51557030  0.23201306  0.91870278    -0.24400
C399        C  0.44085206  0.78577658  0.52682798    -0.11200
C400        C  0.46836060  0.76491332  0.50825896     0.11400
C401        C  0.49923204  0.78565131  0.48658256    -0.03000
C402        C  0.50095215  0.82712535  0.48346877    -0.05700
C403        C  0.47228919  0.84804996  0.50038541    -0.16500
C404        C  0.44245127  0.82722271  0.52378388     0.02400
C405        C  0.46198690  0.72132018  0.50875742     0.12400
C406        C  0.52919026  0.76399776  0.46537405     0.63000
H407        H  0.52376427  0.84350057  0.46622216     0.12400
C408        C  0.41261071  0.84826371  0.54598697     0.55100
H409        H  0.41732819  0.76913940  0.54285436     0.08200
C410        C  0.47464095  0.69655491  0.54100396    -0.05600
C411        C  0.47194534  0.65549310  0.53645990    -0.06400
C412        C  0.45654767  0.63913377  0.50115276    -0.15900
C413        C  0.43899399  0.66365796  0.47151351    -0.01500
C414        C  0.44282901  0.70459688  0.47545311    -0.09100
C415        C  0.49231939  0.71345895  0.57914061     0.65200
H416        H  0.48457987  0.63619191  0.55919538     0.10600
C417        C  0.41640670  0.64808563  0.43527004     0.63600
H418        H  0.43140455  0.72387019  0.45188758     0.08000
F419        F  0.39197211  0.82284036  0.57288588    -0.19500
F420        F  0.38560565  0.86376671  0.51922739    -0.15700
F421        F  0.43164670  0.87833323  0.56724467    -0.19200
F422        F  0.51070464  0.74368519  0.43451879    -0.22600
F423        F  0.54641456  0.73753046  0.49173607    -0.24000
F424        F  0.55888971  0.78973177  0.44946659    -0.18000
F425        F  0.38158075  0.66634593  0.43014053    -0.20500
F426        F  0.40672408  0.60782274  0.43907723    -0.21700
F427        F  0.43877221  0.65650837  0.40176957    -0.18900
F428        F  0.50202498  0.68402179  0.60686401    -0.18900
F429        F  0.46551897  0.73553296  0.59623289    -0.22800
F430        F  0.52612504  0.73734847  0.57082582    -0.24400
C431        C  0.51629952  0.21981074  0.51837721    -0.11200
C432        C  0.55283561  0.23585407  0.50448284     0.11400
C433        C  0.58304327  0.21083142  0.49871164    -0.03000
C434        C  0.57484154  0.16988355  0.50547019    -0.05700
C435        C  0.53750264  0.15318633  0.51768238    -0.16500
C436        C  0.50769995  0.17882663  0.52439629     0.02400
C437        C  0.55804789  0.27925312  0.49678899     0.12400
C438        C  0.62369445  0.22734260  0.48563969     0.63000
H439        H  0.59771833  0.15047469  0.50052634     0.12400
C440        C  0.46653571  0.16344369  0.53608997     0.55100
H441        H  0.49396044  0.23991645  0.52315132     0.08200
C442        C  0.54130314  0.29805615  0.46241574    -0.05600
C443        C  0.54037564  0.33943308  0.46087771    -0.06400
C444        C  0.55496745  0.36183602  0.49281383    -0.15900
C445        C  0.57520066  0.34335493  0.52523215    -0.01500
C446        C  0.57603109  0.30207849  0.52684249    -0.09100
C447        C  0.52297402  0.27436442  0.42840834     0.65200
H448        H  0.52528507  0.35418579  0.43624740     0.10600
C449        C  0.59536282  0.36704605  0.55827232     0.63600
H450        H  0.58879827  0.28709995  0.55276169     0.08000
F451        F  0.46790891  0.13781623  0.56931857    -0.19500
F452        F  0.44869388  0.14413117  0.50440738    -0.15700
F453        F  0.44357390  0.19349639  0.54492569    -0.19200
F454        F  0.64132107  0.25059844  0.51478291    -0.22600
F455        F  0.62071371  0.25001676  0.45050683    -0.24000
F456        F  0.64803829  0.19769093  0.47924830    -0.18000
F457        F  0.56766199  0.38052734  0.58242484    -0.20500
F458        F  0.61813946  0.39893322  0.54177665    -0.21700
F459        F  0.61984663  0.34452533  0.58200377    -0.18900
F460        F  0.51017805  0.29859488  0.39710203    -0.18900
F461        F  0.49092318  0.25025644  0.44162660    -0.22800
F462        F  0.55034067  0.25120477  0.41391131    -0.24400
C463        C  0.51931874  0.05018280  0.70968983    -0.11200
C464        C  0.49972641  0.01580973  0.72680871     0.11400
C465        C  0.48208734  0.98709703  0.70114045    -0.03000
C466        C  0.48665531  0.99274490  0.65929425    -0.05700
C467        C  0.50832533  0.02607343  0.64236557    -0.16500
C468        C  0.52429186  0.05572966  0.66802932     0.02400
C469        C  0.49848323  0.01075113  0.77169288     0.12400
C470        C  0.45833250  0.95074565  0.71803797     0.63000
H471        H  0.47403812  0.97066326  0.63948197     0.12400
C472        C  0.54626795  0.09342875  0.65150499     0.55100
H473        H  0.53172424  0.07232776  0.72954515     0.08200
C474        C  0.53074392  0.99768893  0.79527551    -0.05600
C475        C  0.52778646  0.99413644  0.83732594    -0.06400
C476        C  0.49404036  0.00365464  0.85670831    -0.15900
C477        C  0.46192291  0.01706211  0.83316894    -0.01500
C478        C  0.46475648  0.02035947  0.79108419    -0.09100
C479        C  0.56814821  0.98727893  0.77608481     0.65200
H480        H  0.55214541  0.98429359  0.85566215     0.10600
C481        C  0.42474757  0.02784484  0.85246306     0.63600
H482        H  0.44068657  0.03097272  0.77284265     0.08000
F483        F  0.58153613  0.08495824  0.63585719    -0.19500
F484        F  0.55464920  0.12046759  0.68065748    -0.15700
F485        F  0.52361181  0.11100093  0.62188521    -0.19200
F486        F  0.42486333  0.96196902  0.73527888    -0.22600
F487        F  0.48045042  0.93105913  0.74665763    -0.24000
F488        F  0.44677070  0.92467089  0.68876931    -0.18000
F489        F  0.43303838  0.06064282  0.87482986    -0.20500
F490        F  0.40995325  0.99662416  0.87703386    -0.21700
F491        F  0.39574219  0.03651786  0.82433136    -0.18900
F492        F  0.59614491  0.97610283  0.80427685    -0.18900
F493        F  0.58454023  0.01948349  0.75391708    -0.22800
F494        F  0.55955688  0.95630402  0.75134006    -0.24400
C495        C  0.45945644  0.98288968  0.22018219    -0.11200
C496        C  0.49520046  0.99168450  0.24121366     0.11400
C497        C  0.52978961  0.00201936  0.21919539    -0.03000
C498        C  0.52715170  0.00430519  0.17699428    -0.05700
C499        C  0.49145026  0.99557048  0.15605571    -0.16500
C500        C  0.45693590  0.98474184  0.17795322     0.02400
C501        C  0.49546490  0.98877995  0.28620375     0.12400
C502        C  0.56955288  0.00962097  0.24016184     0.63000
H503        H  0.55325857  0.01214645  0.15977954     0.12400
C504        C  0.41766802  0.97515415  0.15664363     0.55100
H505        H  0.43341647  0.97433986  0.23728604     0.08200
C506        C  0.48258914  0.01906502  0.30914364    -0.05600
C507        C  0.48153371  0.01334073  0.35123534    -0.06400
C508        C  0.49307645  0.97859521  0.37119081    -0.15900
C509        C  0.50597999  0.94840946  0.34827277    -0.01500
C510        C  0.50693597  0.95400710  0.30618479    -0.09100
C511        C  0.46989483  0.05727084  0.28918034     0.65200
H512        H  0.47109301  0.03587783  0.36902119     0.10600
C513        C  0.51733644  0.90987936  0.36832503     0.63600
H514        H  0.51597421  0.93082604  0.28834242     0.08000
F515        F  0.40850764  0.00677922  0.13150323    -0.19500
F516        F  0.38735581  0.96728663  0.18318859    -0.15700
F517        F  0.41976163  0.94229486  0.13440921    -0.19200
F518        F  0.57958703  0.97553403  0.26081653    -0.22600
F519        F  0.56809476  0.03923827  0.26665221    -0.24000
F520        F  0.59900289  0.02103429  0.21343569    -0.18000
F521        F  0.48552135  0.89152687  0.38846491    -0.20500
F522        F  0.54820021  0.91737034  0.39516883    -0.21700
F523        F  0.52907477  0.88420573  0.34108059    -0.18900
F524        F  0.45834942  0.08275900  0.31670056    -0.18900
F525        F  0.43843552  0.04937932  0.26307628    -0.22800
F526        F  0.50081538  0.07628972  0.26824783    -0.24400
C527        C  0.79167420  0.50385965  0.48484747    -0.11200
C528        C  0.77561038  0.53853944  0.47024605     0.11400
C529        C  0.80010759  0.57360931  0.46303061    -0.03000
C530        C  0.84089639  0.57186598  0.46782622    -0.05700
C531        C  0.85699281  0.53691977  0.48136154    -0.16500
C532        C  0.83238452  0.50246484  0.49091407     0.02400
C533        C  0.73258232  0.53778812  0.46596241     0.12400
C534        C  0.78330469  0.61264977  0.45101886     0.63000
H535        H  0.86067909  0.59777295  0.46114231     0.12400
C536        C  0.84905174  0.46451223  0.50702549     0.55100
H537        H  0.77190116  0.47797729  0.49163064     0.08200
C538        C  0.71153663  0.52157166  0.43282400    -0.05600
C539        C  0.67025257  0.52046497  0.43226807    -0.06400
C540        C  0.65048905  0.53579674  0.46322248    -0.15900
C541        C  0.67162664  0.55230303  0.49605294    -0.01500
C542        C  0.71262432  0.55226765  0.49717908    -0.09100
C543        C  0.73251756  0.50574599  0.39841402     0.65200
H544        H  0.65304409  0.50769678  0.40778465     0.10600
C545        C  0.65094006  0.56957413  0.52984283     0.63600
H546        H  0.72963715  0.56373692  0.52242476     0.08000
F547        F  0.87659407  0.45312460  0.48133222    -0.19500
F548        F  0.81998062  0.43382909  0.51138710    -0.15700
F549        F  0.86684442  0.47052172  0.54402511    -0.19200
F550        F  0.76251430  0.62497114  0.48223380    -0.22600
F551        F  0.75838016  0.60844279  0.41799761    -0.24000
F552        F  0.81266567  0.64192491  0.44167081    -0.18000
F553        F  0.67705277  0.58103627  0.56028809    -0.20500
F554        F  0.62304675  0.54188084  0.54582133    -0.21700
F555        F  0.63263861  0.60245638  0.51545378    -0.18900
F556        F  0.70627537  0.49282382  0.36864628    -0.18900
F557        F  0.75338167  0.47425896  0.41187503    -0.22800
F558        F  0.75830327  0.53512627  0.38185204    -0.24400
C559        C  0.21311762  0.48340556  0.49223832    -0.11200
C560        C  0.23016087  0.46326591  0.52480412     0.11400
C561        C  0.20699510  0.44787636  0.55688779    -0.03000
C562        C  0.16617823  0.45011863  0.55352206    -0.05700
C563        C  0.14847562  0.47013750  0.52075258    -0.16500
C564        C  0.17265012  0.48841645  0.49001380     0.02400
C565        C  0.27312365  0.46194312  0.52558852     0.12400
C566        C  0.22549708  0.43114627  0.59521925     0.63000
H567        H  0.14791709  0.43719599  0.57737828     0.12400
C568        C  0.15706526  0.51500961  0.45627281     0.55100
H569        H  0.23229043  0.49613052  0.46897806     0.08200
C570        C  0.29164615  0.43351680  0.50515949    -0.05600
C571        C  0.33293672  0.43634236  0.50466507    -0.06400
C572        C  0.35557228  0.46688371  0.52342590    -0.15900
C573        C  0.33665990  0.49478492  0.54463152    -0.01500
C574        C  0.29546682  0.49190856  0.54488648    -0.09100
C575        C  0.26781450  0.40090708  0.48362230     0.65200
H576        H  0.34785283  0.41526749  0.48867796     0.10600
C577        C  0.35937930  0.52728356  0.56726595     0.63600
H578        H  0.28013303  0.51361536  0.55956281     0.08000
F579        F  0.18716374  0.53346968  0.43359849    -0.19500
F580        F  0.13703011  0.54427593  0.47193297    -0.15700
F581        F  0.13225340  0.49314486  0.43093136    -0.19200
F582        F  0.24792126  0.46095423  0.61381710    -0.22600
F583        F  0.24939148  0.40173970  0.58705390    -0.24000
F584        F  0.19732777  0.41529113  0.62163751    -0.18000
F585        F  0.33526468  0.54541567  0.59198791    -0.20500
F586        F  0.37571401  0.55588849  0.54059554    -0.21700
F587        F  0.38884803  0.51169226  0.59093223    -0.18900
F588        F  0.29177156  0.37571797  0.46655886    -0.18900
F589        F  0.24465209  0.41715814  0.45357443    -0.22800
F590        F  0.24375898  0.37872569  0.51017066    -0.24400
C591        C  0.95125735  0.52240400  0.71060476    -0.11200
C592        C  0.98863167  0.51898817  0.72878147     0.11400
C593        C  0.02116940  0.51246606  0.70543408    -0.03000
C594        C  0.01534711  0.51093378  0.66406062    -0.05700
C595        C  0.97786601  0.51298184  0.64609544    -0.16500
C596        C  0.94510281  0.51852866  0.66932891     0.02400
C597        C  0.99128506  0.51633688  0.77274980     0.12400
C598        C  0.06093486  0.50380966  0.72418670     0.63000
H599        H  0.03971941  0.50580349  0.64544671     0.12400
C600        C  0.90378465  0.51712332  0.65103166     0.55100
H601        H  0.92658725  0.52587620  0.72942198     0.08200
C602        C  0.99749022  0.54998486  0.79591354    -0.05600
C603        C  0.99847935  0.54433540  0.83767632    -0.06400
C604        C  0.99270261  0.50652720  0.85635434    -0.15900
C605        C  0.98568337  0.47298971  0.83301006    -0.01500
C606        C  0.98505679  0.47868570  0.79141701    -0.09100
C607        C  0.00288539  0.59147685  0.77680254     0.65200
H608        H  0.00360581  0.56944982  0.85628485     0.10600
C609        C  0.97837637  0.43081169  0.84977640     0.63600
H610        H  0.97946512  0.45333587  0.77310631     0.08000
F611        F  0.90164611  0.54597662  0.62069758    -0.19500
F612        F  0.87596294  0.52314991  0.67888519    -0.15700
F613        F  0.89446980  0.48047539  0.63559832    -0.19200
F614        F  0.05723930  0.46819317  0.74598773    -0.22600
F615        F  0.07451561  0.53318063  0.74920327    -0.24000
F616        F  0.08904353  0.50124520  0.69563938    -0.18000
F617        F  0.94132050  0.41589476  0.83727211    -0.20500
F618        F  0.98036378  0.42730503  0.89094058    -0.21700
F619        F  0.00615441  0.40802953  0.83528854    -0.18900
F620        F  0.00399432  0.61992143  0.80499820    -0.18900
F621        F  0.97202109  0.59810146  0.75028439    -0.22800
F622        F  0.03777750  0.59624551  0.75654454    -0.24400
C623        C  0.99054159  0.47483658  0.29680771    -0.11200
C624        C  0.02145859  0.48921336  0.27231030     0.11400
C625        C  0.05695491  0.50656038  0.28914159    -0.03000
C626        C  0.05973704  0.51004037  0.33072290    -0.05700
C627        C  0.02826727  0.49650739  0.35502950    -0.16500
C628        C  0.99344052  0.47786025  0.33821851     0.02400
C629        C  0.01403588  0.48933055  0.22886734     0.12400
C630        C  0.09117734  0.52201810  0.26316364     0.63000
H631        H  0.08590003  0.52443911  0.34442421     0.12400
C632        C  0.95885507  0.46267153  0.36375161     0.55100
H633        H  0.96349780  0.46247423  0.28294869     0.08200
C634        C  0.01564137  0.45508034  0.20695536    -0.05600
C635        C  0.00893002  0.45821654  0.16551359    -0.06400
C636        C  0.00166646  0.49446653  0.14603985    -0.15900
C637        C  0.99946511  0.52850726  0.16808317    -0.01500
C638        C  0.00449065  0.52495198  0.20961679    -0.09100
C639        C  0.02522748  0.41585994  0.22709064     0.65200
H640        H  0.01056851  0.43276654  0.14766383     0.10600
C641        C  0.99419225  0.56868863  0.14764246     0.63600
H642        H  0.00266974  0.55041386  0.22741879     0.08000
F643        F  0.92883752  0.44364575  0.34155877    -0.19500
F644        F  0.94363604  0.49386104  0.38113795    -0.15700
F645        F  0.97109207  0.43615826  0.39324018    -0.19200
F646        F  0.08068751  0.55386958  0.23910120    -0.22600
F647        F  0.10142859  0.49268041  0.23931844    -0.24000
F648        F  0.12410125  0.53422387  0.28584137    -0.18000
F649        F  0.96008296  0.56732721  0.12425200    -0.20500
F650        F  0.02605790  0.57965089  0.12382860    -0.21700
F651        F  0.99169982  0.59753422  0.17492517    -0.18900
F652        F  0.02694480  0.38689262  0.19979656    -0.18900
F653        F  0.99661606  0.40307365  0.25416415    -0.22800
F654        F  0.06134445  0.42010741  0.24694422    -0.24400
C655        C  0.20946095  0.02274335  0.47152658    -0.11200
C656        C  0.22956105  0.02745201  0.50838383     0.11400
C657        C  0.20747909  0.03095600  0.54304736    -0.03000
C658        C  0.16588133  0.02824957  0.53976993    -0.05700
C659        C  0.14584003  0.02250733  0.50309117    -0.16500
C660        C  0.16788724  0.01998295  0.46828243     0.02400
C661        C  0.27367979  0.02781016  0.50955575     0.12400
C662        C  0.22774675  0.03782180  0.58326525     0.63000
H663        H  0.14848813  0.03041312  0.56594504     0.12400
C664        C  0.14739655  0.01414627  0.42798720     0.55100
H665        H  0.22676284  0.02063551  0.44527310     0.08200
C666        C  0.29317155  0.99258422  0.50831891    -0.05600
C667        C  0.33460009  0.99519973  0.50602800    -0.06400
C668        C  0.35740523  0.03153864  0.50612751    -0.15900
C669        C  0.33805622  0.06654469  0.50941816    -0.01500
C670        C  0.29640080  0.06415441  0.51047932    -0.09100
C671        C  0.27035180  0.95229765  0.50935043     0.65200
H672        H  0.34968849  0.96858513  0.50366329     0.10600
C673        C  0.36127108  0.10619153  0.51039245     0.63600
H674        H  0.28111316  0.09079234  0.51142135     0.08000
F675        F  0.12424006  0.97883045  0.42900500    -0.19500
F676        F  0.17407246  0.01327335  0.39777716    -0.15700
F677        F  0.12382653  0.04477178  0.41877550    -0.19200
F678        F  0.24803534  0.07469773  0.58226410    -0.22600
F679        F  0.25394446  0.00944686  0.59224225    -0.24000
F680        F  0.20098293  0.03618804  0.61367324    -0.18000
F681        F  0.38254534  0.11262530  0.47591263    -0.20500
F682        F  0.38656268  0.10648799  0.54337912    -0.21700
F683        F  0.33716261  0.13682118  0.51286894    -0.18900
F684        F  0.29520975  0.92192062  0.51197574    -0.18900
F685        F  0.24721218  0.94832156  0.47506065    -0.22800
F686        F  0.24648215  0.94810024  0.54213327    -0.24400
C687        C  0.79117753  0.99266980  0.46439284    -0.11200
C688        C  0.77258654  0.97139033  0.49645939     0.11400
C689        C  0.79581810  0.95471648  0.52761588    -0.03000
C690        C  0.83701540  0.96304456  0.52751989    -0.05700
C691        C  0.85563770  0.98578639  0.49633185    -0.16500
C692        C  0.83257587  0.99955372  0.46339669     0.02400
C693        C  0.72890518  0.97077590  0.49915610     0.12400
C694        C  0.77699647  0.92779098  0.56041457     0.63000
H695        H  0.85525324  0.95135070  0.55156913     0.12400
C696        C  0.85170450  0.02054720  0.42705369     0.55100
H697        H  0.77285216  0.00455611  0.44051973     0.08200
C698        C  0.71158936  0.00124177  0.51778757    -0.05600
C699        C  0.67058567  0.99841647  0.52211078    -0.06400
C700        C  0.64590186  0.96689115  0.50752265    -0.15900
C701        C  0.66318394  0.93662162  0.48800022    -0.01500
C702        C  0.70467601  0.93908595  0.48433642    -0.09100
C703        C  0.73634796  0.03716833  0.53237811     0.65200
H704        H  0.65726752  0.02176933  0.53629964     0.10600
C705        C  0.63835759  0.90163642  0.47186654     0.63600
H706        H  0.71863575  0.91623995  0.46998013     0.08000
F707        F  0.87141203  0.05579732  0.43737914    -0.19500
F708        F  0.82418914  0.02888192  0.39726716    -0.15700
F709        F  0.87818591  0.99687649  0.41168148    -0.19200
F710        F  0.75825857  0.89470618  0.54377707    -0.22600
F711        F  0.74965175  0.94707658  0.58006609    -0.24000
F712        F  0.80465109  0.91541843  0.58837289    -0.18000
F713        F  0.66136388  0.87381269  0.45780756    -0.20500
F714        F  0.61457902  0.91438276  0.44059670    -0.21700
F715        F  0.61514971  0.88341255  0.50164614    -0.18900
F716        F  0.71391036  0.06233934  0.55145791    -0.18900
F717        F  0.75371967  0.05800473  0.50022319    -0.22800
F718        F  0.76545331  0.02571250  0.55905679    -0.24400
C719        C  0.02610985  0.70609156  0.51478805    -0.11200
C720        C  0.00293758  0.72981000  0.48950416     0.11400
C721        C  0.97665118  0.71091978  0.46153333    -0.03000
C722        C  0.97320066  0.66919756  0.46126910    -0.05700
C723        C  0.99531349  0.64508840  0.48740981    -0.16500
C724        C  0.02274623  0.66413428  0.51440031     0.02400
C725        C  0.00565818  0.77408849  0.49370884     0.12400
C726        C  0.95214495  0.73466123  0.43190435     0.63000
H727        H  0.95261234  0.65489303  0.44035418     0.12400
C728        C  0.04906262  0.64056579  0.54204572     0.55100
H729        H  0.04673923  0.72087330  0.53534183     0.08200
C730        C  0.98769729  0.79162501  0.52536217    -0.05600
C731        C  0.98960319  0.83333810  0.52649924    -0.06400
C732        C  0.00693769  0.85836488  0.49607023    -0.15900
C733        C  0.02368277  0.84075591  0.46364915    -0.01500
C734        C  0.02445106  0.79915400  0.46421308    -0.09100
C735        C  0.96542104  0.76633417  0.55717234     0.65200
H736        H  0.97645945  0.84694457  0.55079659     0.10600
C737        C  0.03942600  0.86383455  0.42675447     0.63600
H738        H  0.03834990  0.78594263  0.44009941     0.08000
F739        F  0.02648467  0.61868859  0.57007900    -0.19500
F740        F  0.07673056  0.66478088  0.56219272    -0.15700
F741        F  0.06905688  0.61548221  0.52022061    -0.19200
F742        F  0.97658869  0.75687083  0.40575614    -0.22600
F743        F  0.93023536  0.75956093  0.45187878    -0.24000
F744        F  0.92632043  0.71059100  0.40948947    -0.18000
F745        F  0.07950548  0.86048482  0.42493332    -0.20500
F746        F  0.03294359  0.90344913  0.42568502    -0.21700
F747        F  0.02108606  0.84811665  0.39313562    -0.18900
F748        F  0.94791512  0.78904172  0.58365382    -0.18900
F749        F  0.99089612  0.74323651  0.57874978    -0.22800
F750        F  0.93606198  0.74216724  0.53940806    -0.24400
C751        C  0.03085211  0.30236893  0.49163880    -0.11200
C752        C  0.99759325  0.28087705  0.50789398     0.11400
C753        C  0.96905663  0.30235791  0.52576491    -0.03000
C754        C  0.97506620  0.34423809  0.52681304    -0.05700
C755        C  0.00821195  0.36569599  0.51010258    -0.16500
C756        C  0.03658882  0.34415326  0.49222274     0.02400
C757        C  0.99449232  0.23602304  0.50670420     0.12400
C758        C  0.93224326  0.28115179  0.54355696     0.63000
H759        H  0.95394346  0.36066260  0.54112669     0.12400
C760        C  0.07387351  0.36516346  0.47535949     0.55100
H761        H  0.05289668  0.28585674  0.47893052     0.08200
C762        C  0.98460691  0.21585830  0.47117829    -0.05600
C763        C  0.98415412  0.17398599  0.47179829    -0.06400
C764        C  0.99381585  0.15134494  0.50645261    -0.15900
C765        C  0.00318864  0.17133829  0.54206697    -0.01500
C766        C  0.00371704  0.21320489  0.54146449    -0.09100
C767        C  0.97568513  0.23858673  0.43231522     0.65200
H768        H  0.97732355  0.15853812  0.44471932     0.10600
C769        C  0.01216201  0.14827023  0.58072836     0.63600
H770        H  0.01179825  0.22862570  0.56829512     0.08000
F771        F  0.09829018  0.33905573  0.46048874    -0.19500
F772        F  0.09459563  0.38532070  0.50504562    -0.15700
F773        F  0.06429646  0.39155993  0.44460855    -0.19200
F774        F  0.94242462  0.25558363  0.57477276    -0.22600
F775        F  0.91138772  0.25992568  0.51469886    -0.24000
F776        F  0.90766470  0.30729025  0.55813450    -0.18000
F777        F  0.04421589  0.12654206  0.57632802    -0.20500
F778        F  0.97987700  0.12285370  0.59084605    -0.21700
F779        F  0.02074039  0.17286716  0.61195178    -0.18900
F780        F  0.96197063  0.21367477  0.40271986    -0.18900
F781        F  0.00958407  0.25970883  0.41914059    -0.22800
F782        F  0.94722901  0.26444572  0.43790697    -0.24400
loop_ 
_geom_bond_atom_site_label_1 
_geom_bond_atom_site_label_2 
_geom_bond_distance 
_geom_bond_site_symmetry_2 
_ccdc_geom_bond_type 
N1            C6   1.362       .  A
N1            C5   1.357       .  A
N1           H33   1.039       .  S
N2            C9   1.353       .  A
N2           C10   1.357       .  A
N3            C8   1.355       .  A
N3            C7   1.361       .  A
N3           H34   1.036       .  S
N4           C11   1.360       .  A
N4           C12   1.357       .  A
C5           C13   1.388       .  A
C5           C21   1.425   1_545  A
C6           C22   1.427       .  A
C6           C14   1.386       .  A
C7           C15   1.385       .  A
C7           C24   1.426       .  A
C8           C23   1.427   1_565  A
C8           C16   1.390       .  A
C9           C21   1.420       .  A
C9           C17   1.388       .  A
C10          C24   1.420   1_655  A
C10          C18   1.385       .  A
C11          C19   1.385       .  A
C11          C22   1.426   1_455  A
C12          C20   1.388       .  A
C12          C23   1.428       .  A
C13          C14   1.381       .  A
C13          H25   1.083       .  S
C14          H26   1.082       .  S
C15          C16   1.379       .  A
C15          H27   1.082       .  S
C16          H28   1.082       .  S
C17          C18   1.372       .  A
C17          H29   1.082       .  S
C18          H30   1.082       .  S
C19          C20   1.378       .  A
C19          H31   1.082       .  S
C20          H32   1.082       .  S
C21         C691   1.500       .  S
C22         C764   1.522       .  S
C23         C659   1.503       .  S
C24         C732   1.514       .  S
O35         Ni41   1.907   1_655  S
O35          C56   1.267       .  A
O36         Ni59   1.907       .  S
O36          C45   1.266       .  A
O37         Ni41   1.896       .  S
O37         Ni59   1.891       .  S
O37         Ni53   1.916   1_455  S
O37          H60   0.978       .  S
C38         C531   1.454       .  S
C38          O55   1.276       .  A
C38          O47   1.277       .  A
O39         Ni58   1.910   1_455  S
O39          C45   1.267       .  A
O40         Ni58   1.910       .  S
O40          C42   1.268       .  A
Ni41         O44   1.916       .  S
Ni41         O46   1.925       .  S
C42         C723   1.517       .  S
C42          O52   1.280       .  A
O43         Ni59   1.909       .  S
O43          C49   1.277       .  A
O44          C49   1.281       .  A
C45         C627   1.463       .  S
O46          C48   1.269       .  A
O47         Ni58   1.910       .  S
C48         C755   1.514       .  S
C48          O54   1.279       .  A
C49         C563   1.482       .  S
H50          O51   0.964       .  S
O51         Ni59   1.917   1_655  S
O51         Ni53   1.895       .  S
O51         Ni58   1.897       .  S
O52         Ni53   1.969       .  S
Ni53         O57   1.909       .  S
Ni53         O55   1.910       .  S
O54         Ni59   1.964       .  S
C56         C595   1.463       .  S
C56          O57   1.266       .  A
O61         Ni67   1.908   1_545  S
O61          C82   1.267       .  A
O62         Ni85   1.934       .  S
O62          C71   1.271       .  A
O63         Ni67   1.904       .  S
O63         Ni85   1.911       .  S
O63         Ni79   1.928   1_565  S
O63          H86   0.966       .  S
C64         C435   1.496       .  S
C64          O81   1.287       .  A
C64          O73   1.280       .  A
O65         Ni84   1.914   1_565  S
O65          C71   1.268       .  A
O66         Ni84   1.911       .  S
O66          C68   1.267       .  A
Ni67         O70   1.916       .  S
Ni67         O72   1.917       .  S
C68         C467   1.502       .  S
C68          O78   1.278       .  A
O69         Ni85   1.923       .  S
O69          C75   1.280       .  A
O70          C75   1.276       .  A
C71         C700   1.496       .  S
O72          C74   1.268       .  A
O73         Ni84   1.914       .  S
C74         C508   1.500       .  S
C74          O80   1.278       .  A
C75         C403   1.480       .  S
H76          O77   0.967       .  S
O77         Ni85   1.919   1_545  S
O77         Ni79   1.908       .  S
O77         Ni84   1.900       .  S
O78         Ni79   1.959       .  S
Ni79         O83   1.950       .  S
Ni79         O81   1.940       .  S
O80         Ni85   1.957       .  S
C82         C668   1.497       .  S
C82          O83   1.277       .  A
N87          C92   1.352       .  A
N87          C91   1.360       .  A
N87         H119   1.037       .  S
N88          C95   1.356       .  A
N88          C96   1.350       .  A
N89          C94   1.358       .  A
N89          C93   1.350       .  A
N89         H120   1.038       .  S
N90          C97   1.352       .  A
N90          C98   1.359       .  A
C91          C99   1.384       .  A
C91         C107   1.420       .  A
C92         C108   1.422       .  A
C92         C100   1.390       .  A
C93         C101   1.389       .  A
C93         C110   1.417   1_556  A
C94         C109   1.418       .  A
C94         C102   1.385       .  A
C95         C107   1.416   1_545  A
C95         C103   1.384       .  A
C96         C110   1.418       .  A
C96         C104   1.389       .  A
C97         C105   1.389       .  A
C97         C108   1.423   1_556  A
C98         C106   1.384       .  A
C98         C109   1.422   1_565  A
C99         C100   1.375       .  A
C99         H111   1.082       .  S
C100        H112   1.082       .  S
C101        C102   1.375       .  A
C101        H113   1.082       .  S
C102        H114   1.082       .  S
C103        C104   1.374       .  A
C103        H115   1.082       .  S
C104        H116   1.082       .  S
C105        C106   1.378       .  A
C105        H117   1.082       .  S
C106        H118   1.082       .  S
C107        C499   1.509       .  S
C108        C348   1.489       .  S
C109        C476   1.513       .  S
C110        C371   1.480       .  S
N121        C126   1.363       .  A
N121        C125   1.350       .  A
N121        H153   1.034       .  S
N122        C129   1.350       .  A
N122        C130   1.359       .  A
N123        C128   1.351       .  A
N123        C127   1.363       .  A
N123        H154   1.036       .  S
N124        C131   1.360       .  A
N124        C132   1.351       .  A
C125        C133   1.390       .  A
C125        C141   1.423   1_655  A
C126        C142   1.425       .  A
C126        C134   1.385       .  A
C127        C135   1.384       .  A
C127        C144   1.422   1_556  A
C128        C143   1.424   1_455  A
C128        C136   1.391       .  A
C129        C141   1.422       .  A
C129        C137   1.391       .  A
C130        C144   1.417       .  A
C130        C138   1.383       .  A
C131        C139   1.383       .  A
C131        C142   1.423   1_556  A
C132        C140   1.390       .  A
C132        C143   1.424       .  A
C133        C134   1.377       .  A
C133        H145   1.082       .  S
C134        H146   1.082       .  S
C135        C136   1.378       .  A
C135        H147   1.082       .  S
C136        H148   1.082       .  S
C137        C138   1.371       .  A
C137        H149   1.082       .  S
C138        H150   1.082       .  S
C139        C140   1.375       .  A
C139        H151   1.082       .  S
C140        H152   1.082       .  S
C141        C636   1.478       .  S
C142        C275   1.523       .  S
C143        C604   1.481       .  S
C144        C307   1.517       .  S
O155       Ni161   1.930       .  S
O155        C176   1.274   1_556  A
O156       Ni179   1.908       .  S
O156        C165   1.270       .  A
O157       Ni161   1.902       .  S
O157       Ni179   1.898       .  S
O157       Ni173   1.926   1_556  S
O157        H180   0.965       .  S
C158        C252   1.493       .  S
C158        O175   1.283       .  A
C158        O167   1.279       .  A
O159       Ni178   1.906   1_556  S
O159        C165   1.267       .  A
O160       Ni178   1.918       .  S
O160        C162   1.268       .  A
Ni161       O164   1.937       .  S
Ni161       O166   1.926       .  S
C162        C316   1.508       .  S
C162        O172   1.280       .  A
O163       Ni179   1.930       .  S
O163        C169   1.280       .  A
O164        C169   1.281       .  A
C165        C380   1.467       .  S
O166        C168   1.271       .  A
O167       Ni178   1.913       .  S
C168        C284   1.515       .  S
C168        O174   1.282       .  A
C169        C211   1.490       .  S
H170        O171   0.967       .  S
O171       Ni179   1.920   1_554  S
O171       Ni173   1.888       .  S
O171       Ni178   1.896       .  S
O172       Ni173   1.967       .  S
Ni173       O177   1.907       .  S
Ni173       O175   1.934       .  S
O174       Ni179   1.974       .  S
C176        C339   1.473       .  S
C176        O177   1.270       .  A
O181       Ni187   1.918       .  S
O181        C202   1.267       .  A
O182       Ni205   1.910       .  S
O182        C191   1.267       .  A
O183       Ni187   1.895       .  S
O183       Ni205   1.896       .  S
O183       Ni199   1.906       .  S
O183        H206   0.966       .  S
C184        C540   1.455       .  S
C184        O201   1.276       .  A
C184        O193   1.277       .  A
O185       Ni204   1.926       .  S
O185        C191   1.270       .  A
O186       Ni204   1.903       .  S
O186        C188   1.266       .  A
Ni187       O190   1.916       .  S
Ni187       O192   1.907       .  S
C188        C243   1.482       .  S
C188        O198   1.273       .  A
O189       Ni205   1.906       .  S
O189        C195   1.275       .  A
O190        C195   1.278       .  A
C191        C412   1.474       .  S
O192        C194   1.269       .  A
O193       Ni204   1.917       .  S
C194        C220   1.512       .  S
C194        O200   1.271       .  A
C195        C572   1.472       .  S
H196        O197   0.966       .  S
O197       Ni205   1.901       .  S
O197       Ni199   1.904       .  S
O197       Ni204   1.900       .  S
O198       Ni199   1.935       .  S
Ni199       O203   1.923       .  S
Ni199       O201   1.904       .  S
O200       Ni205   1.940       .  S
C202        C444   1.476       .  S
C202        O203   1.271       .  A
C207        C208   1.403       .  A
C207        C212   1.410       .  A
C207        H217   1.083       .  S
C208        C209   1.420       .  A
C208        C213   1.499       .  S
C209        C210   1.415       .  A
C209        C214   1.519       .  S
C210        C211   1.405       .  A
C210        H215   1.083       .  S
C211        C212   1.420       .  A
C212        C216   1.520       .  S
C213        C218   1.414       .  A
C213        C222   1.404       .  A
C214        F230   1.381       .  S
C214        F231   1.383       .  S
C214        F232   1.384       .  S
C216        F227   1.383       .  S
C216        F228   1.384       .  S
C216        F229   1.383       .  S
C218        C219   1.408       .  A
C218        C223   1.520       .  S
C219        C220   1.414       .  A
C219        H224   1.081       .  S
C220        C221   1.429       .  A
C221        C222   1.416       .  A
C221        C225   1.521       .  S
C222        H226   1.083       .  S
C223        F236   1.385       .  S
C223        F237   1.382       .  S
C223        F238   1.382       .  S
C225        F233   1.382       .  S
C225        F234   1.383       .  S
C225        F235   1.385       .  S
C239        C240   1.399       .  A
C239        C244   1.405       .  A
C239        H249   1.084       .  S
C240        C241   1.417       .  A
C240        C245   1.482       .  S
C241        C242   1.410       .  A
C241        C246   1.521       .  S
C242        C243   1.405       .  A
C242        H247   1.083       .  S
C243        C244   1.420       .  A
C244        C248   1.518       .  S
C245        C250   1.412       .  A
C245        C254   1.400       .  A
C246        F262   1.382       .  S
C246        F263   1.381       .  S
C246        F264   1.384       .  S
C248        F259   1.385       .  S
C248        F260   1.383       .  S
C248        F261   1.383       .  S
C250        C251   1.407       .  A
C250        C255   1.521       .  S
C251        C252   1.412       .  A
C251        H256   1.083       .  S
C252        C253   1.424       .  A
C253        C254   1.407       .  A
C253        C257   1.518       .  S
C254        H258   1.083       .  S
C255        F268   1.385       .  S
C255        F269   1.382       .  S
C255        F270   1.381       .  S
C257        F265   1.384       .  S
C257        F266   1.382       .  S
C257        F267   1.383       .  S
C271        C272   1.409       .  A
C271        C276   1.422       .  A
C271        H281   1.083       .  S
C272        C273   1.423   1_556  A
C272        C277   1.524       .  S
C273        C274   1.423       .  A
C273        C278   1.518       .  S
C274        C275   1.408       .  A
C274        H279   1.083       .  S
C275        C276   1.421   1_554  A
C276        C280   1.518       .  S
C277        C282   1.422       .  A
C277        C286   1.412   1_556  A
C278        F294   1.382       .  S
C278        F295   1.382   1_554  S
C278        F296   1.385       .  S
C280        F291   1.382       .  S
C280        F292   1.384       .  S
C280        F293   1.382   1_556  S
C282        C283   1.420       .  A
C282        C287   1.519       .  S
C283        C284   1.408       .  A
C283        H288   1.083       .  S
C284        C285   1.422   1_556  A
C285        C286   1.427       .  A
C285        C289   1.516       .  S
C286        H290   1.083       .  S
C287        F300   1.384       .  S
C287        F301   1.382       .  S
C287        F302   1.382       .  S
C289        F297   1.385       .  S
C289        F298   1.383       .  S
C289        F299   1.383       .  S
C303        C304   1.406       .  A
C303        C308   1.418   1_554  A
C303        H313   1.083   1_554  S
C304        C305   1.422       .  A
C304        C309   1.513       .  S
C305        C306   1.419       .  A
C305        C310   1.518       .  S
C306        C307   1.406       .  A
C306        H311   1.083       .  S
C307        C308   1.420   1_554  A
C308        C312   1.517       .  S
C309        C314   1.422   1_554  A
C309        C318   1.404       .  A
C310        F326   1.382       .  S
C310        F327   1.382   1_554  S
C310        F328   1.384       .  S
C312        F323   1.383       .  S
C312        F324   1.385       .  S
C312        F325   1.382   1_556  S
C314        C315   1.424       .  A
C314        C319   1.518       .  S
C315        C316   1.409   1_556  A
C315        H320   1.083       .  S
C316        C317   1.423       .  A
C317        C318   1.416       .  A
C317        C321   1.519       .  S
C318        H322   1.083       .  S
C319        F332   1.384       .  S
C319        F333   1.383       .  S
C319        F334   1.383       .  S
C321        F329   1.384       .  S
C321        F330   1.383       .  S
C321        F331   1.382       .  S
C335        C336   1.401   1_556  A
C335        C340   1.403       .  A
C335        H345   1.083       .  S
C336        C337   1.417       .  A
C336        C341   1.483       .  S
C337        C338   1.409       .  A
C337        C342   1.519       .  S
C338        C339   1.403       .  A
C338        H343   1.080       .  S
C339        C340   1.415   1_554  A
C340        C344   1.519       .  S
C341        C346   1.417       .  A
C341        C350   1.402       .  A
C342        F358   1.382       .  S
C342        F359   1.382       .  S
C342        F360   1.385       .  S
C344        F355   1.384       .  S
C344        F356   1.384       .  S
C344        F357   1.382       .  S
C346        C347   1.407       .  A
C346        C351   1.520       .  S
C347        C348   1.402       .  A
C347        H352   1.083       .  S
C348        C349   1.415       .  A
C349        C350   1.407       .  A
C349        C353   1.518       .  S
C350        H354   1.083       .  S
C351        F364   1.384       .  S
C351        F365   1.382   1_554  S
C351        F366   1.382       .  S
C353        F361   1.384       .  S
C353        F362   1.382   1_554  S
C353        F363   1.383       .  S
C367        C368   1.400       .  A
C367        C372   1.401       .  A
C367        H377   1.083       .  S
C368        C369   1.414   1_556  A
C368        C373   1.471       .  S
C369        C370   1.404       .  A
C369        C374   1.518       .  S
C370        C371   1.402       .  A
C370        H375   1.083       .  S
C371        C372   1.415   1_554  A
C372        C376   1.519       .  S
C373        C378   1.418       .  A
C373        C382   1.399   1_556  A
C374        F390   1.383       .  S
C374        F391   1.382   1_554  S
C374        F392   1.384       .  S
C376        F387   1.384       .  S
C376        F388   1.382   1_556  S
C376        F389   1.382       .  S
C378        C379   1.401       .  A
C378        C383   1.519       .  S
C379        C380   1.399       .  A
C379        H384   1.085       .  S
C380        C381   1.419   1_556  A
C381        C382   1.401       .  A
C381        C385   1.521       .  S
C382        H386   1.084       .  S
C383        F396   1.383       .  S
C383        F397   1.383       .  S
C383        F398   1.381       .  S
C385        F393   1.385       .  S
C385        F394   1.382       .  S
C385        F395   1.383       .  S
C399        C400   1.398       .  A
C399        C404   1.405       .  A
C399        H409   1.083       .  S
C400        C401   1.417       .  A
C400        C405   1.480       .  S
C401        C402   1.406       .  A
C401        C406   1.519       .  S
C402        C403   1.402       .  A
C402        H407   1.083       .  S
C403        C404   1.424       .  A
C404        C408   1.522       .  S
C405        C410   1.416       .  A
C405        C414   1.400       .  A
C406        F422   1.382       .  S
C406        F423   1.382       .  S
C406        F424   1.385       .  S
C408        F419   1.385       .  S
C408        F420   1.382       .  S
C408        F421   1.384       .  S
C410        C411   1.408       .  A
C410        C415   1.518       .  S
C411        C412   1.404       .  A
C411        H416   1.083       .  S
C412        C413   1.415       .  A
C413        C414   1.401       .  A
C413        C417   1.515       .  S
C414        H418   1.085       .  S
C415        F428   1.385       .  S
C415        F429   1.382       .  S
C415        F430   1.382       .  S
C417        F425   1.385       .  S
C417        F426   1.383       .  S
C417        F427   1.382       .  S
C431        C432   1.401       .  A
C431        C436   1.407       .  A
C431        H441   1.083       .  S
C432        C433   1.410       .  A
C432        C437   1.483       .  S
C433        C434   1.407       .  A
C433        C438   1.520       .  S
C434        C435   1.414       .  A
C434        H439   1.082       .  S
C435        C436   1.420       .  A
C436        C440   1.512       .  S
C437        C442   1.418       .  A
C437        C446   1.401       .  A
C438        F454   1.382       .  S
C438        F455   1.382       .  S
C438        F456   1.384       .  S
C440        F451   1.382       .  S
C440        F452   1.378       .  S
C440        F453   1.384       .  S
C442        C443   1.408       .  A
C442        C447   1.520       .  S
C443        C444   1.402       .  A
C443        H448   1.083       .  S
C444        C445   1.418       .  A
C445        C446   1.405       .  A
C445        C449   1.519       .  S
C446        H450   1.083       .  S
C447        F460   1.384       .  S
C447        F461   1.382       .  S
C447        F462   1.382       .  S
C449        F457   1.382       .  S
C449        F458   1.384       .  S
C449        F459   1.385       .  S
C463        C464   1.404       .  A
C463        C468   1.415       .  A
C463        H473   1.083       .  S
C464        C465   1.420   1_545  A
C464        C469   1.509       .  S
C465        C466   1.419       .  A
C465        C470   1.517       .  S
C466        C467   1.406   1_565  A
C466        H471   1.083       .  S
C467        C468   1.424       .  A
C468        C472   1.520       .  S
C469        C474   1.422   1_545  A
C469        C478   1.406       .  A
C470        F486   1.382       .  S
C470        F487   1.382       .  S
C470        F488   1.384       .  S
C472        F483   1.382       .  S
C472        F484   1.384       .  S
C472        F485   1.382       .  S
C474        C475   1.416       .  A
C474        C479   1.519       .  S
C475        C476   1.405   1_565  A
C475        H480   1.083       .  S
C476        C477   1.421       .  A
C477        C478   1.417       .  A
C477        C481   1.518       .  S
C478        H482   1.083       .  S
C479        F492   1.385       .  S
C479        F493   1.382   1_565  S
C479        F494   1.382       .  S
C481        F489   1.382       .  S
C481        F490   1.383   1_545  S
C481        F491   1.385       .  S
C495        C496   1.408       .  A
C495        C500   1.416       .  A
C495        H505   1.083       .  S
C496        C497   1.420   1_565  A
C496        C501   1.508       .  S
C497        C498   1.415       .  A
C497        C502   1.517       .  S
C498        C499   1.405   1_545  A
C498        H503   1.083       .  S
C499        C500   1.418       .  A
C500        C504   1.518       .  S
C501        C506   1.421   1_565  A
C501        C510   1.407       .  A
C502        F518   1.382   1_545  S
C502        F519   1.382       .  S
C502        F520   1.385       .  S
C504        F515   1.383   1_565  S
C504        F516   1.385       .  S
C504        F517   1.382       .  S
C506        C507   1.417       .  A
C506        C511   1.520       .  S
C507        C508   1.407   1_545  A
C507        H512   1.083       .  S
C508        C509   1.418       .  A
C509        C510   1.417       .  A
C509        C513   1.515       .  S
C510        H514   1.083       .  S
C511        F524   1.384       .  S
C511        F525   1.382       .  S
C511        F526   1.382       .  S
C513        F521   1.383       .  S
C513        F522   1.380       .  S
C513        F523   1.384       .  S
C527        C528   1.400       .  A
C527        C532   1.400       .  A
C527        H537   1.084       .  S
C528        C529   1.414       .  A
C528        C533   1.466       .  S
C529        C530   1.399       .  A
C529        C534   1.519       .  S
C530        C531   1.398       .  A
C530        H535   1.084       .  S
C531        C532   1.414       .  A
C532        C536   1.520       .  S
C533        C538   1.416       .  A
C533        C542   1.397       .  A
C534        F550   1.382       .  S
C534        F551   1.382       .  S
C534        F552   1.385       .  S
C536        F547   1.383       .  S
C536        F548   1.385       .  S
C536        F549   1.383       .  S
C538        C539   1.403       .  A
C538        C543   1.519       .  S
C539        C540   1.399       .  A
C539        H544   1.083       .  S
C540        C541   1.414       .  A
C541        C542   1.396       .  A
C541        C545   1.519       .  S
C542        H546   1.083       .  S
C543        F556   1.385       .  S
C543        F557   1.382       .  S
C543        F558   1.382       .  S
C545        F553   1.385       .  S
C545        F554   1.383       .  S
C545        F555   1.383       .  S
C559        C560   1.397       .  A
C559        C564   1.401       .  A
C559        H569   1.084       .  S
C560        C561   1.408       .  A
C560        C565   1.467       .  S
C561        C562   1.399       .  A
C561        C566   1.520       .  S
C562        C563   1.410       .  A
C562        H567   1.082       .  S
C563        C564   1.426       .  A
C564        C568   1.523       .  S
C565        C570   1.412       .  A
C565        C574   1.397       .  A
C566        F582   1.383       .  S
C566        F583   1.382       .  S
C566        F584   1.384       .  S
C568        F579   1.385       .  S
C568        F580   1.384       .  S
C568        F581   1.382       .  S
C570        C571   1.402       .  A
C570        C575   1.521       .  S
C571        C572   1.407       .  A
C571        H576   1.083       .  S
C572        C573   1.420       .  A
C573        C574   1.399       .  A
C573        C577   1.520       .  S
C574        H578   1.084       .  S
C575        F588   1.384       .  S
C575        F589   1.382       .  S
C575        F590   1.382       .  S
C577        F585   1.384       .  S
C577        F586   1.383       .  S
C577        F587   1.384       .  S
C591        C592   1.406       .  A
C591        C596   1.406       .  A
C591        H601   1.083       .  S
C592        C593   1.414   1_655  A
C592        C597   1.474       .  S
C593        C594   1.400       .  A
C593        C598   1.520       .  S
C594        C595   1.401   1_455  A
C594        H599   1.084       .  S
C595        C596   1.410       .  A
C596        C600   1.517       .  S
C597        C602   1.414       .  A
C597        C606   1.400       .  A
C598        F614   1.382       .  S
C598        F615   1.380       .  S
C598        F616   1.385       .  S
C600        F611   1.382       .  S
C600        F612   1.384       .  S
C600        F613   1.384       .  S
C602        C603   1.405       .  A
C602        C607   1.520   1_655  S
C603        C604   1.404       .  A
C603        H608   1.083   1_655  S
C604        C605   1.417       .  A
C605        C606   1.399       .  A
C605        C609   1.519       .  S
C606        H610   1.085       .  S
C607        F620   1.385       .  S
C607        F621   1.382   1_455  S
C607        F622   1.381       .  S
C609        F617   1.383       .  S
C609        F618   1.381       .  S
C609        F619   1.384   1_655  S
C623        C624   1.397   1_655  A
C623        C628   1.399       .  A
C623        H633   1.083       .  S
C624        C625   1.417       .  A
C624        C629   1.472       .  S
C625        C626   1.406       .  A
C625        C630   1.520       .  S
C626        C627   1.400       .  A
C626        H631   1.083       .  S
C627        C628   1.415   1_455  A
C628        C632   1.519       .  S
C629        C634   1.414       .  A
C629        C638   1.401       .  A
C630        F646   1.382       .  S
C630        F647   1.382       .  S
C630        F648   1.384       .  S
C632        F643   1.384       .  S
C632        F644   1.379       .  S
C632        F645   1.383       .  S
C634        C635   1.403       .  A
C634        C639   1.519       .  S
C635        C636   1.402       .  A
C635        H640   1.083       .  S
C636        C637   1.413   1_455  A
C637        C638   1.400   1_655  A
C637        C641   1.519       .  S
C638        H642   1.083       .  S
C639        F652   1.384       .  S
C639        F653   1.382   1_455  S
C639        F654   1.382       .  S
C641        F649   1.382       .  S
C641        F650   1.383   1_655  S
C641        F651   1.385       .  S
C655        C656   1.406       .  A
C655        C660   1.413       .  A
C655        H665   1.083       .  S
C656        C657   1.419       .  A
C656        C661   1.501       .  S
C657        C658   1.414       .  A
C657        C662   1.518       .  S
C658        C659   1.404       .  A
C658        H663   1.083       .  S
C659        C660   1.417       .  A
C660        C664   1.518       .  S
C661        C666   1.418   1_545  A
C661        C670   1.406       .  A
C662        F678   1.382       .  S
C662        F679   1.382       .  S
C662        F680   1.385       .  S
C664        F675   1.383   1_545  S
C664        F676   1.384       .  S
C664        F677   1.383       .  S
C666        C667   1.411       .  A
C666        C671   1.519       .  S
C667        C668   1.406   1_565  A
C667        H672   1.083       .  S
C668        C669   1.417       .  A
C669        C670   1.416       .  A
C669        C673   1.509       .  S
C670        H674   1.083       .  S
C671        F684   1.385       .  S
C671        F685   1.382       .  S
C671        F686   1.382       .  S
C673        F681   1.382       .  S
C673        F682   1.382       .  S
C673        F683   1.384       .  S
C687        C688   1.404       .  A
C687        C692   1.412       .  A
C687        H697   1.083   1_565  S
C688        C689   1.416       .  A
C688        C693   1.491       .  S
C689        C690   1.409       .  A
C689        C694   1.519       .  S
C690        C691   1.405       .  A
C690        H695   1.083       .  S
C691        C692   1.419       .  A
C692        C696   1.519   1_565  S
C693        C698   1.413   1_565  A
C693        C702   1.406       .  A
C694        F710   1.383       .  S
C694        F711   1.382       .  S
C694        F712   1.384       .  S
C696        F707   1.381       .  S
C696        F708   1.384       .  S
C696        F709   1.383   1_545  S
C698        C699   1.403   1_545  A
C698        C703   1.521       .  S
C699        C700   1.407       .  A
C699        H704   1.083   1_565  S
C700        C701   1.423       .  A
C701        C702   1.417       .  A
C701        C705   1.517       .  S
C702        H706   1.083       .  S
C703        F716   1.384       .  S
C703        F717   1.382       .  S
C703        F718   1.382       .  S
C705        F713   1.385       .  S
C705        F714   1.380       .  S
C705        F715   1.383       .  S
C719        C720   1.409       .  A
C719        C724   1.423       .  A
C719        H729   1.083       .  S
C720        C721   1.419   1_455  A
C720        C725   1.515       .  S
C721        C722   1.415       .  A
C721        C726   1.521       .  S
C722        C723   1.413       .  A
C722        H727   1.082       .  S
C723        C724   1.423   1_655  A
C724        C728   1.516       .  S
C725        C730   1.421   1_455  A
C725        C734   1.408       .  A
C726        F742   1.382       .  S
C726        F743   1.383       .  S
C726        F744   1.385       .  S
C728        F739   1.382       .  S
C728        F740   1.385       .  S
C728        F741   1.383       .  S
C730        C731   1.417       .  A
C730        C735   1.519       .  S
C731        C732   1.408   1_655  A
C731        H736   1.083       .  S
C732        C733   1.423       .  A
C733        C734   1.416       .  A
C733        C737   1.520       .  S
C734        H738   1.084       .  S
C735        F748   1.384       .  S
C735        F749   1.382       .  S
C735        F750   1.383       .  S
C737        F745   1.382       .  S
C737        F746   1.381       .  S
C737        F747   1.384       .  S
C751        C752   1.407   1_455  A
C751        C756   1.420       .  A
C751        H761   1.082       .  S
C752        C753   1.425       .  A
C752        C757   1.523       .  S
C753        C754   1.425       .  A
C753        C758   1.518       .  S
C754        C755   1.409   1_655  A
C754        H759   1.083       .  S
C755        C756   1.422       .  A
C756        C760   1.516       .  S
C757        C762   1.424       .  A
C757        C766   1.410   1_655  A
C758        F774   1.382       .  S
C758        F775   1.383       .  S
C758        F776   1.385       .  S
C760        F771   1.384       .  S
C760        F772   1.382       .  S
C760        F773   1.382       .  S
C762        C763   1.422       .  A
C762        C767   1.518       .  S
C763        C764   1.408       .  A
C763        H768   1.083       .  S
C764        C765   1.420   1_655  A
C765        C766   1.422       .  A
C765        C769   1.518       .  S
C766        H770   1.082       .  S
C767        F780   1.384       .  S
C767        F781   1.382   1_655  S
C767        F782   1.383       .  S
C769        F777   1.382       .  S
C769        F778   1.383   1_455  S
C769        F779   1.384       .  S
