geometry optimzed in LAMMPS
_audit_creation_date              2020-12-01 
_audit_creation_method            'lammps2cif' 
_symmetry_space_group_name_H-M    'P1' 
_symmetry_Int_Tables_number       1 
_symmetry_cell_setting            triclinic 
loop_ 
_symmetry_equiv_pos_as_xyz 
  x,y,z 
_cell_length_a                    47.25684969 
_cell_length_b                    47.28145104121316 
_cell_length_c                    31.775357841079657 
_cell_angle_alpha                 90.44364878434587 
_cell_angle_beta                  89.61187510388876 
_cell_angle_gamma                 90.92329049038727 
loop_ 
_atom_site_label 
_atom_site_type_symbol 
_atom_site_fract_x 
_atom_site_fract_y 
_atom_site_fract_z 
_atom_site_charge 
O1          O  0.03864737  0.41470444  0.62006260    -0.55500
C2          C  0.47307863  0.40315758  0.69735046     0.77200
O3          O  0.48644432  0.38447231  0.54539958    -0.56600
C4          C  0.05136206  0.40206661  0.59021081     0.77100
C5          C  0.50937895  0.31953005  0.63746481     0.79500
Cd6        Cd  0.49750918  0.37838945  0.62122399     1.37500
O7          O  0.49811400  0.40920739  0.68550254    -0.55500
O8          O  0.02382369  0.34001359  0.65505045    -0.54300
C9          C  0.46162262  0.39325514  0.55104669     0.79500
O10         O  0.48780017  0.32670427  0.61695670    -0.56700
O11         O  0.46007930  0.38501257  0.67496230    -0.55100
O12         O  0.04080415  0.37847365  0.57887491    -0.55100
O13         O  0.45244556  0.39217416  0.58845374    -0.54300
O14         O  0.41699069  0.03097333  0.90910251    -0.55500
C15         C  0.41955804  0.45668237  0.84262876     0.77200
O16         O  0.39888496  0.43776548  0.96016710    -0.56600
C17         C  0.40547977  0.04094753  0.94212138     0.77100
C18         C  0.33524712  0.49441927  0.90629874     0.79500
Cd19       Cd  0.39438715  0.48199358  0.91743469     1.37500
O20         O  0.42888075  0.47967275  0.85838432    -0.55500
O21         O  0.35371324  0.50188125  0.87937407    -0.53500
C22         C  0.41780787  0.44814220  0.98407150     0.79500
O23         O  0.34384312  0.47932614  0.93628179    -0.56700
O24         O  0.39806105  0.44585607  0.86069556    -0.55100
O25         O  0.39089869  0.52321574  0.96286230    -0.55100
O26         O  0.42442470  0.47373426  0.97821007    -0.54300
O27         O  0.48804923  0.09587874  0.16203332    -0.55500
C28         C  0.05047496  0.11566457  0.08725208     0.77200
O29         O  0.45106243  0.12702255  0.08527757    -0.56600
C30         C  0.47431164  0.10913757  0.18994217     0.77100
C31         C  0.50892035  0.19746595  0.12952294     0.79500
Cd32       Cd  0.49830050  0.13755766  0.11706612     1.37500
O33         O  0.03671753  0.10472518  0.11758908    -0.55500
O34         O  0.02786774  0.18125161  0.14235644    -0.54300
C35         C  0.46084045  0.12030612  0.04953144     0.79500
O36         O  0.48759241  0.18842278  0.10918984    -0.56700
O37         O  0.04167632  0.13900604  0.07392837    -0.55100
O38         O  0.47324948  0.13572393  0.18550298    -0.55100
O39         O  0.48712447  0.12408033  0.04462368    -0.54300
O40         O  0.42799260  0.98754059  0.41106547    -0.55500
C41         C  0.41778556  0.05289010  0.33004126     0.77200
O42         O  0.34520721  0.03896399  0.42338400    -0.56600
C43         C  0.41283093  0.97309127  0.43639578     0.77100
C44         C  0.42055825  0.05856899  0.47528072     0.79500
Cd45       Cd  0.39481839  0.02720492  0.40642310     1.37500
O46         O  0.41611916  0.02621714  0.33361694    -0.55500
O47         O  0.39926245  0.06846839  0.45671295    -0.54300
C48         C  0.33431805  0.01929804  0.40120319     0.79500
O49         O  0.42869032  0.03466911  0.46266537    -0.56700
O50         O  0.40777742  0.06692059  0.36043417    -0.55100
O51         O  0.38863320  0.98278576  0.44481452    -0.55100
O52         O  0.35126283  0.00429782  0.38005054    -0.54300
O53         O  0.05170547  0.10589840  0.67797419    -0.55500
C54         C  0.99610846  0.11827983  0.59286945     0.77200
O55         O  0.05770709  0.19464725  0.61526694    -0.56600
C56         C  0.07438470  0.11524271  0.69437481     0.77100
C57         C  0.08362266  0.12495806  0.55150882     0.79500
Cd58       Cd  0.04879594  0.14282592  0.62237584     1.37500
O59         O  0.00990385  0.10674782  0.62207987    -0.55500
O60         O  0.09467405  0.13360421  0.58546522    -0.54300
C61         C  0.03756322  0.20227093  0.63901446     0.79500
O62         O  0.05714201  0.12711034  0.54942935    -0.56700
O63         O  0.00558798  0.14195123  0.58027210    -0.55100
O64         O  0.08424959  0.13796202  0.67893502    -0.55100
O65         O  0.02351385  0.18261318  0.65661771    -0.54300
O66         O  0.12769504  0.03107484  0.83770202    -0.55500
C67         C  0.14041045  0.97428140  0.93351340     0.77200
O68         O  0.20314991  0.03748963  0.92935343    -0.56600
C69         C  0.13088364  0.05733651  0.83096260     0.77100
C70         C  0.12633088  0.06001817  0.97333640     0.79500
Cd71       Cd  0.15438653  0.03063151  0.90514913     1.37500
O72         O  0.12811894  0.98466147  0.90192138    -0.55500
O73         O  0.15014138  0.06892911  0.95983834    -0.54300
C74         C  0.21489241  0.02482718  0.89882432     0.79500
O75         O  0.11608282  0.03846669  0.95494329    -0.56700
O76         O  0.16032547  0.98904121  0.94898573    -0.55100
O77         O  0.14594741  0.07077078  0.85743282    -0.55100
O78         O  0.19890583  0.01707811  0.86889219    -0.54300
O79         O  0.11996731  0.48742483  0.35342754    -0.55500
C80         C  0.13704603  0.04621704  0.44097331     0.77200
O81         O  0.13263378  0.48647930  0.48280392    -0.56600
C82         C  0.13241980  0.46771072  0.33389218     0.77100
C83         C  0.21624079  0.50112700  0.40683753     0.79500
Cd84       Cd  0.15509787  0.49305431  0.41220702     1.37500
O85         O  0.12539791  0.03560882  0.40835430    -0.55500
O86         O  0.19922052  0.51691994  0.38781032    -0.54300
C87         C  0.13109511  0.45986298  0.48163297     0.79500
O88         O  0.20516501  0.48073461  0.42708384    -0.56700
O89         O  0.15865321  0.53888071  0.44878159    -0.55100
O90         O  0.15602560  0.46090385  0.34899641    -0.55100
O91         O  0.14249082  0.44840155  0.44985414    -0.54300
O92         O  0.09371745  0.38644981  0.17251480    -0.55500
C93         C  0.00631971  0.40144497  0.08233820     0.77200
O94         O  0.07348391  0.37977350  0.04123163    -0.56600
C95         C  0.08136953  0.40651804  0.19149129     0.77100
C96         C  0.04415035  0.31921730  0.12805525     0.79500
Cd97       Cd  0.05751497  0.37883925  0.11611464     1.37500
O98         O  0.01228808  0.40540623  0.12085693    -0.55500
O99         O  0.02669747  0.33853938  0.13571893    -0.54300
C100        C  0.09311852  0.39778884  0.04688353     0.79500
O101        O  0.06887485  0.32735469  0.11763329    -0.56700
O102        O  0.02412373  0.38799592  0.06060422    -0.55100
O103        O  0.05740489  0.41292900  0.17686639    -0.55100
O104        O  0.09777174  0.40503871  0.08459753    -0.54300
C105        C  0.09103250  0.45633192  0.28612656     0.25900
C106        C  0.11973312  0.45281593  0.29644952    -0.22200
C107        C  0.13570751  0.43385173  0.27175805     0.20800
C108        C  0.12329538  0.41873302  0.23811305     0.25900
C109        C  0.09447444  0.42202772  0.22810859    -0.22100
C110        C  0.07858660  0.44110308  0.25268144     0.20800
F111        F  0.05071474  0.44486311  0.24482409    -0.12100
F112        F  0.07464192  0.47420427  0.30890862    -0.14400
F113        F  0.13977972  0.40115170  0.21494506    -0.14400
F114        F  0.16356494  0.43005126  0.27978685    -0.12100
C115        C  0.14863379  0.44040917  0.98918211     0.25900
C116        C  0.13315307  0.45036229  0.95467764    -0.22200
C117        C  0.10645670  0.43792976  0.94620295     0.20800
C118        C  0.09419725  0.41861991  0.97457101     0.25900
C119        C  0.10851445  0.41140000  0.01161177    -0.22100
C120        C  0.13634934  0.42129041  0.01743532     0.20800
F121        F  0.15117045  0.41359901  0.05184655    -0.12100
F122        F  0.17298240  0.94530628  0.99532181    -0.14400
F123        F  0.06725398  0.40928008  0.96790215    -0.14400
F124        F  0.09118245  0.44615297  0.91252022    -0.12100
C125        C  0.08649686  0.10155517  0.48040008     0.25900
C126        C  0.10007096  0.11088547  0.51752302    -0.22200
C127        C  0.12824280  0.10295166  0.52427466     0.20800
C128        C  0.14133376  0.08367705  0.49709087     0.25900
C129        C  0.12660423  0.07209105  0.46235415    -0.22100
C130        C  0.09974619  0.08259974  0.45291366     0.20800
F131        F  0.08524217  0.07289786  0.41885817    -0.12100
F132        F  0.05958391  0.10922075  0.47191897    -0.14400
F133        F  0.16784189  0.07509127  0.50639182    -0.14400
F134        F  0.14250142  0.11209004  0.55889875    -0.12100
C135        C  0.08292615  0.07158914  0.73745687     0.25900
C136        C  0.08892362  0.10031466  0.72912340    -0.22200
C137        C  0.10966367  0.11437269  0.75351379     0.20800
C138        C  0.12350193  0.10036430  0.78601622     0.25900
C139        C  0.11721152  0.07174002  0.79485059    -0.22100
C140        C  0.09692567  0.05748437  0.76977706     0.20800
F141        F  0.09027205  0.02985614  0.77668133    -0.12100
F142        F  0.06382887  0.05687107  0.71383555    -0.14400
F143        F  0.14309980  0.11499805  0.80883761    -0.14400
F144        F  0.11641483  0.14195277  0.74637918    -0.12100
C145        C  0.29582758  0.49009969  0.41044358     0.25900
C146        C  0.30349259  0.01372570  0.40060403    -0.22200
C147        C  0.28448296  0.03622719  0.40065997     0.20800
C148        C  0.25528218  0.03091877  0.40036163     0.25900
C149        C  0.24729145  0.50673260  0.40629344    -0.22100
C150        C  0.26657393  0.48448963  0.40976726     0.20800
F151        F  0.25713453  0.45726802  0.41214657    -0.12100
F152        F  0.31385282  0.46820769  0.41438041    -0.14400
F153        F  0.23750469  0.05319806  0.40042451    -0.14400
F154        F  0.29419196  0.06340362  0.40040747    -0.12100
C155        C  0.43814281  0.10363757  0.50960350     0.25900
C156        C  0.43623822  0.07393055  0.50887019    -0.22200
C157        C  0.45227534  0.05859570  0.53773226     0.20800
C158        C  0.47102581  0.07242775  0.56508793     0.25900
C159        C  0.47440970  0.10206324  0.56424442    -0.22100
C160        C  0.95404259  0.11953451  0.54490547     0.20800
F161        F  0.95645274  0.14812384  0.54252651    -0.12100
F162        F  0.42307248  0.11911503  0.48203511    -0.14400
F163        F  0.48695545  0.05647122  0.59084291    -0.14400
F164        F  0.45051661  0.02990515  0.53860888    -0.12100
C165        C  0.49551955  0.24871239  0.12910615     0.25900
C166        C  0.01937021  0.23087307  0.13186752    -0.22200
C167        C  0.04752649  0.23945625  0.14024779     0.20800
C168        C  0.05557050  0.26810038  0.13913617     0.25900
C169        C  0.03565398  0.28890227  0.13017751    -0.22100
C170        C  0.00749776  0.28042930  0.12192445     0.20800
F171        F  0.48216184  0.29679999  0.12569800    -0.12100
F172        F  0.46781524  0.24109073  0.12537774    -0.14400
F173        F  0.08290597  0.27548997  0.14702354    -0.14400
F174        F  0.06762247  0.22010202  0.14845899    -0.12100
C175        C  0.11348128  0.10312322  0.01585495     0.25900
C176        C  0.11058806  0.07389848  0.00806518    -0.22200
C177        C  0.09055344  0.05815359  0.03158105     0.20800
C178        C  0.07255446  0.07157247  0.06022109     0.25900
C179        C  0.07395499  0.10106758  0.06563062    -0.22100
C180        C  0.09518184  0.11662161  0.04424149     0.20800
F181        F  0.09742042  0.14509420  0.04950502    -0.12100
F182        F  0.13256715  0.11897150  0.99381959    -0.14400
F183        F  0.05208373  0.05595805  0.07980125    -0.14400
F184        F  0.08756232  0.02978630  0.02566400    -0.12100
C185        C  0.43907954  0.09606173  0.29586109     0.25900
C186        C  0.43139482  0.06712456  0.29325660    -0.22200
C187        C  0.43770693  0.05218963  0.25595194     0.20800
C188        C  0.45180012  0.06568536  0.22242193     0.25900
C189        C  0.45983670  0.09450907  0.22550098    -0.22100
C190        C  0.45302594  0.10949721  0.26240797     0.20800
F191        F  0.46043962  0.13723944  0.26669538    -0.12100
F192        F  0.43371224  0.11138185  0.33122236    -0.14400
F193        F  0.45688746  0.05074525  0.18658844    -0.14400
F194        F  0.42991014  0.02455539  0.25153188    -0.12100
C195        C  0.25840824  0.01239468  0.93819934     0.25900
C196        C  0.24532406  0.01795584  0.89953797    -0.22200
C197        C  0.26110885  0.01508646  0.86209639     0.20800
C198        C  0.29290494  0.51035958  0.86521488     0.25900
C199        C  0.30542535  0.50363670  0.90392046    -0.22100
C200        C  0.28650786  0.00373970  0.93942336     0.20800
F201        F  0.29855555  0.99921629  0.97741505    -0.12100
F202        F  0.24375302  0.01457481  0.97495593    -0.14400
F203        F  0.30796702  0.50856510  0.82878281    -0.14400
F204        F  0.24930580  0.02077468  0.82432153    -0.12100
C205        C  0.46250661  0.43080917  0.07811378     0.25900
C206        C  0.47282579  0.40410534  0.06648852    -0.22200
C207        C  0.46124303  0.39022855  0.03096232     0.20800
C208        C  0.44136427  0.40371507  0.00588151     0.25900
C209        C  0.43299946  0.43139442  0.01555408    -0.22100
C210        C  0.44309271  0.44447107  0.05257344     0.20800
F211        F  0.43525998  0.47114986  0.06295783    -0.12100
F212        F  0.97968883  0.45223229  0.10938967    -0.14400
F213        F  0.43232174  0.39071719  0.97005283    -0.14400
F214        F  0.47021361  0.36418437  0.01915601    -0.12100
C215        C  0.44247151  0.07855873  0.95168847     0.25900
C216        C  0.41575553  0.06730595  0.96260322    -0.22200
C217        C  0.40152695  0.07840417  0.99804148     0.20800
C218        C  0.41520341  0.09788014  0.02469997     0.25900
C219        C  0.44336375  0.10648779  0.01640633    -0.22100
C220        C  0.45616447  0.09785294  0.97833810     0.20800
F221        F  0.48293376  0.10628800  0.96823631    -0.12100
F222        F  0.45660510  0.06901742  0.91718651    -0.14400
F223        F  0.40153642  0.10664263  0.06007253    -0.14400
F224        F  0.37507846  0.06906520  0.00851678    -0.12100
C225        C  0.04382655  0.28229646  0.64671728     0.25900
C226        C  0.01525149  0.29024221  0.64485058    -0.22200
C227        C  0.49595696  0.26831862  0.64565661     0.20800
C228        C  0.00145416  0.24031384  0.64476631     0.25900
C229        C  0.03004941  0.23242508  0.64427927    -0.22100
C230        C  0.05115275  0.25369671  0.64577082     0.20800
F231        F  0.07893413  0.24682264  0.64607496    -0.12100
F232        F  0.06481941  0.30225320  0.64724422    -0.14400
F233        F  0.98057434  0.22027317  0.64339567    -0.14400
F234        F  0.46820784  0.27525963  0.64769673    -0.12100
C235        C  0.45926287  0.41629354  0.48026569     0.25900
C236        C  0.44537652  0.40700784  0.51717858    -0.22200
C237        C  0.41750038  0.41579437  0.52478992     0.20800
C238        C  0.40549995  0.43670808  0.49991352     0.25900
C239        C  0.42116622  0.44911410  0.46666338    -0.22100
C240        C  0.44722589  0.43713309  0.45524852     0.20800
F241        F  0.46211824  0.44690393  0.42153052    -0.12100
F242        F  0.48553706  0.40708972  0.47023813    -0.14400
F243        F  0.37936618  0.44610294  0.51037634    -0.14400
F244        F  0.40249178  0.40562206  0.55816596    -0.12100
C245        C  0.10536718  0.45631986  0.55135944     0.25900
C246        C  0.11515218  0.44336069  0.51396450    -0.22200
C247        C  0.10673683  0.41523443  0.50541215     0.20800
C248        C  0.08729982  0.40122370  0.53160525     0.25900
C249        C  0.07594346  0.41485441  0.56741484    -0.22100
C250        C  0.08612407  0.44214634  0.57792017     0.20800
F251        F  0.07650151  0.45573014  0.61287087    -0.12100
F252        F  0.11353222  0.48315273  0.56159208    -0.14400
F253        F  0.07844274  0.37480312  0.52024118    -0.14400
F254        F  0.11577976  0.40176512  0.47003408    -0.12100
C255        C  0.43123715  0.40994291  0.74611273     0.25900
C256        C  0.45949106  0.41669785  0.73484599    -0.22200
C257        C  0.47428662  0.43699933  0.75929538     0.20800
C258        C  0.46136883  0.44986740  0.79422741     0.25900
C259        C  0.43318226  0.44309186  0.80539727    -0.22100
C260        C  0.41828483  0.42297234  0.78086394     0.20800
F261        F  0.39088095  0.41622367  0.78992161    -0.12100
F262        F  0.41581258  0.39091181  0.72326795    -0.14400
F263        F  0.47675228  0.46865446  0.81756938    -0.14400
F264        F  0.50133060  0.44461254  0.74944406    -0.12100
O265        O  0.03216322  0.91553404  0.61369464    -0.55500
C266        C  0.47040798  0.91014395  0.69112078     0.77200
O267        O  0.49058233  0.89887280  0.55063500    -0.56600
C268        C  0.04696885  0.90135272  0.58790343     0.77100
C269        C  0.50832702  0.82105819  0.64139084     0.79500
Cd270      Cd  0.49616563  0.87938139  0.62087580     1.37500
O271        O  0.49663702  0.91240080  0.68307261    -0.55500
O272        O  0.01831669  0.83845019  0.65194733    -0.54300
C273        C  0.46431618  0.89504288  0.54698633     0.79500
O274        O  0.48695894  0.82722965  0.61964528    -0.56700
O275        O  0.45664063  0.89343977  0.66739143    -0.55100
O276        O  0.03860042  0.87623629  0.58064657    -0.55100
O277        O  0.45226252  0.88148068  0.57650895    -0.54300
O278        O  0.42380385  0.52569854  0.91576769    -0.55500
C279        C  0.41727507  0.96428404  0.83555424     0.77200
O280        O  0.40179909  0.94084270  0.95302842    -0.56600
C281        C  0.41190083  0.53668124  0.94777374     0.77100
C282        C  0.33245948  0.99310460  0.90399008     0.79500
Cd283      Cd  0.39217686  0.98521402  0.91309739     1.37500
O284        O  0.42724296  0.98589824  0.85442328    -0.55500
O285        O  0.35010787  0.00184005  0.87677988    -0.53500
C286        C  0.41875772  0.95273669  0.97863377     0.79500
O287        O  0.34224221  0.97857173  0.93377121    -0.56700
O288        O  0.39564853  0.95274687  0.85229208    -0.55100
O289        O  0.38629560  0.02586650  0.95904021    -0.55100
O290        O  0.42219130  0.97905821  0.97462298    -0.54300
O291        O  0.49998945  0.60339601  0.18340166    -0.55500
C292        C  0.04773756  0.61193774  0.08961409     0.77200
O293        O  0.45571712  0.62594467  0.09121791    -0.56600
C294        C  0.47934578  0.61413931  0.20308629     0.77100
C295        C  0.51298196  0.69965000  0.13057069     0.79500
Cd296      Cd  0.50216787  0.63887183  0.12544127     1.37500
O297        O  0.02708067  0.59803404  0.10505665    -0.55500
O298        O  0.02566974  0.68037051  0.15225062    -0.54300
C299        C  0.46690307  0.61584842  0.05821052     0.79500
O300        O  0.49264827  0.68934210  0.10933903    -0.56700
O301        O  0.04699892  0.63848961  0.09463063    -0.55100
O302        O  0.47045132  0.63711048  0.18827532    -0.55100
O303        O  0.49344349  0.61805184  0.05606097    -0.54300
O304        O  0.42724067  0.48964713  0.42121655    -0.55500
C305        C  0.42334646  0.55787709  0.34501018     0.77200
O306        O  0.34720924  0.54398371  0.43396506    -0.56600
C307        C  0.41225688  0.47641748  0.44821881     0.77100
C308        C  0.42267247  0.56556577  0.49018562     0.79500
Cd309      Cd  0.39787758  0.53270585  0.42107610     1.37500
O310        O  0.43020440  0.53365477  0.35780847    -0.55500
O311        O  0.40348269  0.57588575  0.46765472    -0.54300
C312        C  0.33719523  0.52402294  0.41144655     0.79500
O313        O  0.42900760  0.54031072  0.48199941    -0.56700
O314        O  0.40383220  0.56955808  0.36586641    -0.55100
O315        O  0.39014608  0.48876662  0.46075301    -0.55100
O316        O  0.35503751  0.50902983  0.39199800    -0.54300
O317        O  0.05481546  0.60442470  0.67633184    -0.55500
C318        C  0.99301370  0.62490410  0.59540367     0.77200
O319        O  0.05746366  0.69375245  0.61367228    -0.56600
C320        C  0.07539038  0.61600922  0.69542046     0.77100
C321        C  0.07958826  0.62242274  0.55084063     0.79500
Cd322      Cd  0.04806153  0.64253646  0.62361255     1.37500
O323        O  0.00357692  0.61440477  0.62835136    -0.55500
O324        O  0.08957257  0.64222101  0.57366967    -0.54300
C325        C  0.03645850  0.70185408  0.63536869     0.79500
O326        O  0.05568485  0.61267120  0.56162095    -0.56700
O327        O  0.00690446  0.64493608  0.57849393    -0.55100
O328        O  0.08213566  0.64061126  0.68314496    -0.55100
O329        O  0.02226142  0.68272680  0.65402870    -0.54300
O330        O  0.13286750  0.53251497  0.83519346    -0.55500
C331        C  0.14269194  0.47665458  0.93310958     0.77200
O332        O  0.20568105  0.54082778  0.92928146    -0.56600
C333        C  0.13619214  0.55870211  0.82801491     0.77100
C334        C  0.12504106  0.56117264  0.97001984     0.79500
Cd335      Cd  0.15693535  0.53277464  0.90408744     1.37500
O336        O  0.13029302  0.48663135  0.90132751    -0.55500
O337        O  0.14960009  0.57024437  0.96008573    -0.54300
C338        C  0.21775377  0.52728893  0.89981806     0.79500
O339        O  0.11581843  0.54035088  0.94885079    -0.56700
O340        O  0.16265798  0.49164293  0.94802474    -0.55100
O341        O  0.15075057  0.57247920  0.85474035    -0.55100
O342        O  0.20195341  0.51813554  0.87050912    -0.54300
O343        O  0.12012998  0.99072314  0.34850767    -0.55500
C344        C  0.13524955  0.54844763  0.43671906     0.77200
O345        O  0.12949805  0.98489285  0.48040124    -0.56600
C346        C  0.12867269  0.96729204  0.33385437     0.77100
C347        C  0.21358611  0.99774589  0.40288189     0.79500
Cd348      Cd  0.15284262  0.99136136  0.41081949     1.37500
O349        O  0.12205936  0.53352475  0.40959878    -0.55500
O350        O  0.19660391  0.01414321  0.38508619    -0.54300
C351        C  0.12604654  0.95847247  0.47775533     0.79500
O352        O  0.20258605  0.97720482  0.42283383    -0.56700
O353        O  0.15692337  0.03225066  0.45670325    -0.55100
O354        O  0.14885469  0.95632431  0.35349727    -0.55100
O355        O  0.13647241  0.94697008  0.44529993    -0.54300
O356        O  0.09009823  0.88865140  0.17149498    -0.55500
C357        C  0.00166393  0.89882454  0.08407300     0.77200
O358        O  0.06190528  0.89359243  0.04477032    -0.56600
C359        C  0.07678027  0.90737210  0.19178068     0.77100
C360        C  0.04242356  0.81805695  0.13133271     0.79500
Cd361      Cd  0.05386904  0.87788065  0.11737785     1.37500
O362        O  0.01262035  0.91001493  0.11676201    -0.55500
O363        O  0.02561940  0.83717519  0.14276185    -0.54300
C364        C  0.08842842  0.89614393  0.04594137     0.79500
O365        O  0.06578577  0.82648027  0.11586277    -0.56700
O366        O  0.01418124  0.87751984  0.06904109    -0.55100
O367        O  0.05209029  0.91219807  0.17856218    -0.55100
O368        O  0.09976981  0.88861175  0.07991690    -0.54300
C369        C  0.08888266  0.96065389  0.28154627     0.25900
C370        C  0.11559924  0.95282651  0.29661143    -0.22200
C371        C  0.12917483  0.92980031  0.27710213     0.20800
C372        C  0.11652997  0.91512101  0.24348465     0.25900
C373        C  0.08975274  0.92282962  0.22836943    -0.22100
C374        C  0.07605323  0.94576683  0.24805185     0.20800
F375        F  0.05014530  0.95388976  0.23503694    -0.12100
F376        F  0.07474049  0.98232435  0.29986873    -0.14400
F377        F  0.13064080  0.89311442  0.22600124    -0.14400
F378        F  0.15491347  0.92134503  0.29044389    -0.12100
C379        C  0.14600016  0.93646500  0.98772028     0.25900
C380        C  0.13049658  0.94786568  0.95425254    -0.22200
C381        C  0.10325604  0.93685176  0.94610938     0.20800
C382        C  0.09034187  0.91792568  0.97417048     0.25900
C383        C  0.10456380  0.90935859  0.01072617    -0.22100
C384        C  0.13318651  0.91727331  0.01556319     0.20800
F385        F  0.14823738  0.90818783  0.04895554    -0.12100
F386        F  0.17505729  0.45061432  0.99740673    -0.14400
F387        F  0.06312831  0.90969583  0.96697949    -0.14400
F388        F  0.08803060  0.94623609  0.91308556    -0.12100
C389        C  0.07997275  0.59687802  0.48160697     0.25900
C390        C  0.09505784  0.60997786  0.51469444    -0.22200
C391        C  0.12463237  0.60771966  0.51548408     0.20800
C392        C  0.13842150  0.58977842  0.48693897     0.25900
C393        C  0.12282013  0.57394927  0.45690536    -0.22100
C394        C  0.09380202  0.57942574  0.45253739     0.20800
F395        F  0.07826323  0.56622435  0.42220082    -0.12100
F396        F  0.05151002  0.59978601  0.47866194    -0.14400
F397        F  0.16677301  0.58647439  0.49066705    -0.14400
F398        F  0.13991056  0.62072155  0.54629627    -0.12100
C399        C  0.08605432  0.57241888  0.73748278     0.25900
C400        C  0.09125834  0.60130816  0.72913633    -0.22200
C401        C  0.11276115  0.61551099  0.75194259     0.20800
C402        C  0.12834774  0.60135134  0.78249833     0.25900
C403        C  0.12246651  0.57272283  0.79174356    -0.22100
C404        C  0.10149498  0.55833723  0.76820705     0.20800
F405        F  0.09536068  0.53062470  0.77540100    -0.12100
F406        F  0.06592877  0.55759132  0.71599107    -0.14400
F407        F  0.14916501  0.61581334  0.80310199    -0.14400
F408        F  0.11860339  0.64332695  0.74517796    -0.12100
C409        C  0.29281364  0.98576441  0.40099142     0.25900
C410        C  0.30635491  0.51809494  0.40868497    -0.22200
C411        C  0.28713194  0.54030653  0.40541075     0.20800
C412        C  0.25793598  0.53468494  0.40367853     0.25900
C413        C  0.24452218  0.00298187  0.40134127    -0.22100
C414        C  0.26356494  0.98044234  0.40200763     0.20800
F415        F  0.25388570  0.95326239  0.40312943    -0.12100
F416        F  0.31071606  0.96359441  0.40184110    -0.14400
F417        F  0.24001675  0.55674038  0.40086697    -0.14400
F418        F  0.29665963  0.56750244  0.40336554    -0.12100
C419        C  0.44359903  0.61121729  0.51770806     0.25900
C420        C  0.43827466  0.58207814  0.52274555    -0.22200
C421        C  0.45127414  0.56802387  0.55619921     0.20800
C422        C  0.47085265  0.58219741  0.58200066     0.25900
C423        C  0.47815984  0.61070253  0.57457589    -0.22100
C424        C  0.95414859  0.62753414  0.54220213     0.20800
F425        F  0.96130906  0.65487501  0.53395686    -0.12100
F426        F  0.43143070  0.62552598  0.48585354    -0.14400
F427        F  0.48419131  0.56732103  0.61215787    -0.14400
F428        F  0.44597316  0.54009766  0.56282132    -0.12100
C429        C  0.49918745  0.75062592  0.12353368     0.25900
C430        C  0.01876335  0.72958700  0.13696013    -0.22200
C431        C  0.04728710  0.73817535  0.14172732     0.20800
C432        C  0.05512221  0.76688767  0.13988555     0.25900
C433        C  0.03450738  0.78765805  0.13452707    -0.22100
C434        C  0.00596102  0.77909138  0.13054533     0.20800
F435        F  0.48514629  0.79850037  0.11781817    -0.12100
F436        F  0.47209535  0.74236282  0.11552964    -0.14400
F437        F  0.08288589  0.77432925  0.14334044    -0.14400
F438        F  0.06780434  0.71871461  0.14661531    -0.12100
C439        C  0.11199969  0.60166519  0.01846944     0.25900
C440        C  0.10755506  0.57369014  0.00427403    -0.22200
C441        C  0.08520022  0.55763858  0.02213069     0.20800
C442        C  0.06696040  0.56957748  0.05185177     0.25900
C443        C  0.07025557  0.59808153  0.06424154    -0.22100
C444        C  0.09343646  0.61380830  0.04795356     0.20800
F445        F  0.09771412  0.64123831  0.05952175    -0.12100
F446        F  0.13350317  0.61773423  0.00246347    -0.14400
F447        F  0.04529325  0.55335037  0.06705773    -0.14400
F448        F  0.08062041  0.53025884  0.01046687    -0.12100
C449        C  0.42821115  0.59844045  0.29385152     0.25900
C450        C  0.43765433  0.57213945  0.30849011    -0.22200
C451        C  0.46158066  0.56025640  0.28882192     0.20800
C452        C  0.47554175  0.57418121  0.25554313     0.25900
C453        C  0.46575787  0.60021624  0.24042695    -0.22100
C454        C  0.44191185  0.61214998  0.26020744     0.20800
F455        F  0.43154920  0.63713339  0.24688629    -0.12100
F456        F  0.40553083  0.61107769  0.31194209    -0.14400
F457        F  0.49866573  0.56195177  0.23808956    -0.14400
F458        F  0.47177247  0.53515831  0.30191221    -0.12100
C459        C  0.26135141  0.51558640  0.93965780     0.25900
C460        C  0.24838556  0.52103360  0.90092380    -0.22200
C461        C  0.26447647  0.51849794  0.86367999     0.20800
C462        C  0.28943991  0.00681767  0.86338390     0.25900
C463        C  0.30226708  0.00066851  0.90204963    -0.22100
C464        C  0.28942386  0.50677036  0.94111368     0.20800
F465        F  0.30112777  0.50180238  0.97920192    -0.12100
F466        F  0.24649465  0.51772400  0.97623138    -0.14400
F467        F  0.30425078  0.00461375  0.82677436    -0.14400
F468        F  0.25277850  0.52419257  0.82583732    -0.12100
C469        C  0.46524092  0.93792149  0.07228129     0.25900
C470        C  0.47561714  0.91097862  0.06183258    -0.22200
C471        C  0.46409445  0.89653541  0.02674532     0.20800
C472        C  0.44400387  0.90937334  0.00131535     0.25900
C473        C  0.43519156  0.93702831  0.01008395    -0.22100
C474        C  0.44535179  0.95085449  0.04653560     0.20800
F475        F  0.43680177  0.97739426  0.05645602    -0.12100
F476        F  0.97689924  0.95170464  0.10797653    -0.14400
F477        F  0.43485574  0.89552502  0.96625199    -0.14400
F478        F  0.47313218  0.87035887  0.01582403    -0.12100
C479        C  0.45102301  0.57190424  0.96084918     0.25900
C480        C  0.42325887  0.56234572  0.96923491    -0.22200
C481        C  0.40828725  0.57455560  0.00316124     0.20800
C482        C  0.42185583  0.59344636  0.03085388     0.25900
C483        C  0.45058594  0.60075505  0.02487858    -0.22100
C484        C  0.46457248  0.59077994  0.98843315     0.20800
F485        F  0.49203463  0.59792256  0.98055065    -0.12100
F486        F  0.46594147  0.56143644  0.92770597    -0.14400
F487        F  0.40730098  0.60306116  0.06490954    -0.14400
F488        F  0.38090327  0.56704346  0.01101154    -0.12100
C489        C  0.04046538  0.78205546  0.63608484     0.25900
C490        C  0.01164602  0.78912444  0.63690783    -0.22200
C491        C  0.49755652  0.76914563  0.65008605     0.20800
C492        C  0.99930060  0.73894574  0.63874768     0.25900
C493        C  0.02815056  0.73189463  0.63738399    -0.22100
C494        C  0.04863200  0.75373656  0.63548675     0.20800
F495        F  0.07659894  0.74773164  0.63307853    -0.12100
F496        F  0.06078353  0.80264270  0.63392483    -0.14400
F497        F  0.97897464  0.71831091  0.63927720    -0.14400
F498        F  0.46948350  0.77457219  0.65304286    -0.12100
C499        C  0.46394406  0.91919415  0.47718466     0.25900
C500        C  0.44882797  0.90825326  0.51200613    -0.22200
C501        C  0.42005975  0.91472619  0.51657616     0.20800
C502        C  0.40763056  0.93446133  0.49008777     0.25900
C503        C  0.42361461  0.94760936  0.45777637    -0.22100
C504        C  0.45140773  0.93851445  0.45023142     0.20800
F505        F  0.46723069  0.94964718  0.41840039    -0.12100
F506        F  0.49147240  0.91250510  0.47058175    -0.14400
F507        F  0.38060245  0.94220343  0.49830735    -0.14400
F508        F  0.40455006  0.90397838  0.54901770    -0.12100
C509        C  0.10086985  0.95509879  0.54779386     0.25900
C510        C  0.10953265  0.94230077  0.50967588    -0.22200
C511        C  0.10018680  0.91452485  0.50068327     0.20800
C512        C  0.08135644  0.90053267  0.52773922     0.25900
C513        C  0.07123921  0.91397297  0.56447193    -0.22100
C514        C  0.08206493  0.94099490  0.57505487     0.20800
F515        F  0.07383117  0.95417127  0.61113556    -0.12100
F516        F  0.10981068  0.98166888  0.55819177    -0.14400
F517        F  0.07169345  0.87440145  0.51628708    -0.14400
F518        F  0.10780792  0.90138254  0.46429966    -0.12100
C519        C  0.42752095  0.92112136  0.73554287     0.25900
C520        C  0.45648945  0.92576950  0.72642269    -0.22200
C521        C  0.47183769  0.94516636  0.75176292     0.20800
C522        C  0.45894965  0.95834314  0.78651471     0.25900
C523        C  0.43036842  0.95259830  0.79659266    -0.22100
C524        C  0.41465829  0.93445476  0.76999714     0.20800
F525        F  0.38665557  0.92954257  0.77724846    -0.12100
F526        F  0.41149987  0.90328744  0.71154831    -0.14400
F527        F  0.47478287  0.97596415  0.81113017    -0.14400
F528        F  0.49948648  0.95119511  0.74341128    -0.12100
O529        O  0.52898498  0.42000124  0.61054829    -0.55500
C530        C  0.97564098  0.40883037  0.69698879     0.77200
O531        O  0.99081887  0.39288123  0.54966048    -0.56600
C532        C  0.54766956  0.40731408  0.58910899     0.77100
C533        C  0.00807096  0.32051189  0.64037177     0.79500
Cd534      Cd  0.99890223  0.37993818  0.62359411     1.37500
O535        O  0.00013101  0.41527122  0.68317989    -0.55500
O536        O  0.52462359  0.33947254  0.65202053    -0.54300
C537        C  0.96514683  0.39910941  0.55369574     0.79500
O538        O  0.98668584  0.32840446  0.62000952    -0.56700
O539        O  0.96316465  0.38865557  0.67802019    -0.55100
O540        O  0.54434943  0.38078099  0.58567403    -0.55100
O541        O  0.95407539  0.39360000  0.58910442    -0.54300
O542        O  0.92287489  0.03413185  0.91055273    -0.55500
C543        C  0.92148344  0.46343495  0.84032646     0.77200
O544        O  0.90437594  0.44110659  0.95767402    -0.56600
C545        C  0.90974982  0.04464271  0.94181450     0.77100
C546        C  0.83538214  0.49315236  0.90879537     0.79500
Cd547      Cd  0.89582443  0.48533820  0.91701508     1.37500
O548        O  0.92855872  0.48743247  0.85514782    -0.55500
O549        O  0.85275888  0.50266510  0.88170513    -0.53500
C550        C  0.92067684  0.45293798  0.98421914     0.79500
O551        O  0.84579582  0.47843326  0.93781210    -0.56700
O552        O  0.90228811  0.45013312  0.86035702    -0.55100
O553        O  0.89046207  0.52753282  0.95880366    -0.55100
O554        O  0.92392713  0.47930718  0.98079540    -0.54300
O555        O  0.98935016  0.10024796  0.16593074    -0.55500
C556        C  0.55260203  0.11698569  0.08935330     0.77200
O557        O  0.95267079  0.12797139  0.08608093    -0.56600
C558        C  0.97491852  0.11378355  0.19279314     0.77100
C559        C  0.01139402  0.20028514  0.12994301     0.79500
Cd560      Cd  0.99886368  0.14066366  0.11757959     1.37500
O561        O  0.53902893  0.10472248  0.11874889    -0.55500
O562        O  0.52403151  0.17887153  0.14637526    -0.54300
C563        C  0.96157283  0.12564494  0.04867554     0.79500
O564        O  0.98813742  0.19163978  0.11452036    -0.56700
O565        O  0.54184302  0.13930603  0.07542878    -0.55100
O566        O  0.97275731  0.14006632  0.18623342    -0.55100
O567        O  0.98705693  0.13283251  0.04265729    -0.54300
O568        O  0.92499603  0.98909041  0.41058198    -0.55500
C569        C  0.92024447  0.05851095  0.33610194     0.77200
O570        O  0.84475999  0.04419751  0.41749210    -0.56600
C571        C  0.91226114  0.97788881  0.44178475     0.77100
C572        C  0.91904642  0.06090328  0.48244897     0.79500
Cd573      Cd  0.89530935  0.03159057  0.41065563     1.37500
O574        O  0.91696147  0.03191183  0.33841197    -0.55500
O575        O  0.89560690  0.06857032  0.46739046    -0.54300
C576        C  0.83525574  0.02190091  0.39984353     0.79500
O577        O  0.93075272  0.04017597  0.46458678    -0.56700
O578        O  0.91139088  0.07239623  0.36753294    -0.55100
O579        O  0.89112844  0.99095474  0.45620483    -0.55100
O580        O  0.85344518  0.00499475  0.38553109    -0.54300
O581        O  0.54888334  0.10749129  0.68415374    -0.55500
C582        C  0.49785216  0.11607467  0.58820394     0.77200
O583        O  0.55991559  0.19312230  0.61729459    -0.56600
C584        C  0.57231220  0.11604054  0.69930221     0.77100
C585        C  0.58545039  0.12509768  0.55395539     0.79500
Cd586      Cd  0.54891132  0.14161638  0.62341176     1.37500
O587        O  0.51434758  0.10236738  0.61151879    -0.55500
O588        O  0.59386214  0.12507368  0.59159297    -0.54300
C589        C  0.53889870  0.20132627  0.63883847     0.79500
O590        O  0.56138661  0.13545721  0.54815355    -0.56700
O591        O  0.50355152  0.14216445  0.58463448    -0.55100
O592        O  0.58359736  0.13711185  0.68101762    -0.55100
O593        O  0.52362366  0.18203782  0.65516225    -0.54300
O594        O  0.62633297  0.03390191  0.84571231    -0.55500
C595        C  0.64159324  0.97749614  0.93933868     0.77200
O596        O  0.70637812  0.03779125  0.93507201    -0.56600
C597        C  0.63109539  0.05954384  0.83612476     0.77100
C598        C  0.63134152  0.06432338  0.97825789     0.79500
Cd599      Cd  0.65720348  0.03332428  0.90977133     1.37500
O600        O  0.62986615  0.98777501  0.90716086    -0.55500
O601        O  0.65239250  0.07494962  0.95873178    -0.54300
C602        C  0.71804343  0.02600109  0.90372875     0.79500
O603        O  0.62282611  0.04031065  0.96574118    -0.56700
O604        O  0.66179181  0.99192324  0.95467126    -0.55100
O605        O  0.64905925  0.07243505  0.85898157    -0.55100
O606        O  0.70193270  0.01956040  0.87327482    -0.54300
O607        O  0.62061376  0.49274384  0.34537496    -0.55500
C608        C  0.63870854  0.04755707  0.44148607     0.77200
O609        O  0.61321424  0.48716603  0.45698671    -0.56600
C610        C  0.62825191  0.46832176  0.33353418     0.77100
C611        C  0.71290772  0.50138906  0.39601719     0.79500
Cd612      Cd  0.65272159  0.49538021  0.40802742     1.37500
O613        O  0.62580567  0.03609458  0.41060098    -0.55500
O614        O  0.69566445  0.51759555  0.37819917    -0.54300
C615        C  0.62352228  0.46638880  0.47598722     0.79500
O616        O  0.70216165  0.48114840  0.41704248    -0.56700
O617        O  0.66126289  0.53269797  0.45935977    -0.55100
O618        O  0.64773294  0.45744750  0.35481792    -0.55100
O619        O  0.64775149  0.45855527  0.46359930    -0.54300
O620        O  0.58896917  0.38676125  0.17428517    -0.55500
C621        C  0.49825417  0.39295819  0.08730735     0.77200
O622        O  0.56060504  0.40899332  0.06306240    -0.56600
C623        C  0.57571818  0.40531441  0.19504169     0.77100
C624        C  0.53937873  0.31681083  0.13146010     0.79500
Cd625      Cd  0.55170918  0.37662235  0.12051824     1.37500
O626        O  0.50660616  0.40195633  0.12299361    -0.55500
O627        O  0.52193549  0.33574982  0.14127142    -0.54300
C628        C  0.58286972  0.39825528  0.04844044     0.79500
O629        O  0.56354700  0.32549610  0.11926959    -0.56700
O630        O  0.51393469  0.37523701  0.06877655    -0.55100
O631        O  0.55083842  0.40982687  0.18257577    -0.55100
O632        O  0.59202641  0.37695024  0.06775065    -0.54300
C633        C  0.58748145  0.45920979  0.28395933     0.25900
C634        C  0.61493849  0.45280240  0.29750096    -0.22200
C635        C  0.62914304  0.43037192  0.27752472     0.20800
C636        C  0.61638118  0.41491518  0.24471942     0.25900
C637        C  0.58885468  0.42120945  0.23109895    -0.22100
C638        C  0.57452914  0.44352237  0.25141658     0.20800
F639        F  0.54791154  0.45033109  0.23984345    -0.12100
F640        F  0.57278078  0.48026607  0.30290045    -0.14400
F641        F  0.63120278  0.39374981  0.22629483    -0.14400
F642        F  0.65573136  0.42354799  0.28928434    -0.12100
C643        C  0.63995593  0.43225821  0.98151442     0.25900
C644        C  0.62350990  0.44941424  0.95531366    -0.22200
C645        C  0.59407565  0.44449989  0.95388357     0.20800
C646        C  0.58109621  0.42575631  0.98204968     0.25900
C647        C  0.59723985  0.41123817  0.01172117    -0.22100
C648        C  0.62688769  0.41307760  0.00925000     0.20800
F649        F  0.64309015  0.39836541  0.03626583    -0.12100
F650        F  0.67292181  0.94831771  0.00259124    -0.14400
F651        F  0.55243039  0.42306769  0.98195638    -0.14400
F652        F  0.57744797  0.45963393  0.92796933    -0.12100
C653        C  0.58772416  0.10198453  0.48277649     0.25900
C654        C  0.60168943  0.11148641  0.51943595    -0.22200
C655        C  0.63008934  0.10408819  0.52527867     0.20800
C656        C  0.64318898  0.08510491  0.49762182     0.25900
C657        C  0.62817951  0.07329200  0.46330494    -0.22100
C658        C  0.60099610  0.08341485  0.45471476     0.20800
F659        F  0.58621507  0.07365603  0.42096080    -0.12100
F660        F  0.56026935  0.10848563  0.47587906    -0.14400
F661        F  0.66999844  0.07704359  0.50604023    -0.14400
F662        F  0.64473480  0.11391979  0.55914929    -0.12100
C663        C  0.57859039  0.07427440  0.74778830     0.25900
C664        C  0.58645650  0.10190966  0.73544130    -0.22200
C665        C  0.60922650  0.11534496  0.75647602     0.20800
C666        C  0.62368940  0.10165063  0.78878256     0.25900
C667        C  0.61605470  0.07387658  0.80089145    -0.22100
C668        C  0.59323470  0.06044107  0.77988008     0.20800
F669        F  0.58486653  0.03379563  0.79037378    -0.12100
F670        F  0.55712174  0.06021709  0.72811966    -0.14400
F671        F  0.64534595  0.11571595  0.80800476    -0.14400
F672        F  0.61761965  0.14197974  0.74591775    -0.12100
C673        C  0.79202920  0.49027356  0.40445439     0.25900
C674        C  0.80458134  0.01559130  0.39691508    -0.22200
C675        C  0.78531394  0.03757501  0.39193690     0.20800
C676        C  0.75621753  0.03183053  0.39099754     0.25900
C677        C  0.74391869  0.50661909  0.39410363    -0.22100
C678        C  0.76286623  0.48469640  0.40230441     0.20800
F679        F  0.75315010  0.45786936  0.40862404    -0.12100
F680        F  0.80968100  0.46882157  0.41355814    -0.14400
F681        F  0.73827622  0.05368036  0.38607353    -0.14400
F682        F  0.79466504  0.06470889  0.38776528    -0.12100
C683        C  0.93493891  0.10548413  0.51815908     0.25900
C684        C  0.93327118  0.07585046  0.51754483    -0.22200
C685        C  0.94896922  0.06057050  0.54686439     0.20800
C686        C  0.96784617  0.07457148  0.57401061     0.25900
C687        C  0.97156685  0.10416207  0.57196777    -0.22100
C688        C  0.45718731  0.11758501  0.53679282     0.20800
F689        F  0.45968882  0.14618425  0.53460145    -0.12100
F690        F  0.92000627  0.12072695  0.49016434    -0.14400
F691        F  0.98403744  0.05888392  0.59979856    -0.14400
F692        F  0.94695414  0.03188953  0.54789673    -0.12100
C693        C  0.99945543  0.25178729  0.12267854     0.25900
C694        C  0.51643006  0.22802138  0.13220308    -0.22200
C695        C  0.54497375  0.23678563  0.13554390     0.20800
C696        C  0.55244277  0.26557432  0.13557881     0.25900
C697        C  0.53152684  0.28629455  0.13297242    -0.22100
C698        C  0.50294225  0.27752465  0.12978599     0.20800
F699        F  0.98788064  0.29978743  0.11139482    -0.12100
F700        F  0.97218599  0.24460843  0.11381776    -0.14400
F701        F  0.58023260  0.27312369  0.13793109    -0.14400
F702        F  0.56587452  0.21745533  0.13693081    -0.12100
C703        C  0.61369509  0.10844875  0.01330219     0.25900
C704        C  0.61648100  0.07892404  0.01307000    -0.22200
C705        C  0.60219313  0.06291530  0.04402269     0.20800
C706        C  0.58351438  0.07583113  0.07225569     0.25900
C707        C  0.57821156  0.10493407  0.06931200    -0.22100
C708        C  0.59472139  0.12135898  0.04122334     0.20800
F709        F  0.59135544  0.14977968  0.03909040    -0.12100
F710        F  0.62738137  0.12455394  0.98416017    -0.14400
F711        F  0.56902575  0.05939564  0.10013938    -0.14400
F712        F  0.60526531  0.03443037  0.04565559    -0.12100
C713        C  0.94178343  0.10159096  0.30097602     0.25900
C714        C  0.93393882  0.07266483  0.29912159    -0.22200
C715        C  0.93970399  0.05748873  0.26177839     0.20800
C716        C  0.95311693  0.07075565  0.22746094     0.25900
C717        C  0.96100813  0.09962326  0.22946158    -0.22100
C718        C  0.95491263  0.11488780  0.26649953     0.20800
F719        F  0.96224834  0.14269282  0.26983108    -0.12100
F720        F  0.93724127  0.11706921  0.33646585    -0.14400
F721        F  0.95761203  0.05547165  0.19176963    -0.14400
F722        F  0.93208792  0.02977213  0.25810350    -0.12100
C723        C  0.76211832  0.01248857  0.94162484     0.25900
C724        C  0.74858995  0.01909049  0.90365996    -0.22200
C725        C  0.76423860  0.01784360  0.86588217     0.20800
C726        C  0.79164815  0.50782224  0.86998673     0.25900
C727        C  0.80476081  0.49976309  0.90765604    -0.22100
C728        C  0.79050992  0.00452782  0.94175865     0.20800
F729        F  0.80293512  0.99902800  0.97917367    -0.12100
F730        F  0.74770062  0.01311403  0.97872607    -0.14400
F731        F  0.80652613  0.50855378  0.83330867    -0.14400
F732        F  0.75205266  0.02463313  0.82882533    -0.12100
C733        C  0.96890993  0.43805748  0.07564088     0.25900
C734        C  0.98041477  0.41220322  0.06266505    -0.22200
C735        C  0.96850641  0.39780862  0.02789159     0.20800
C736        C  0.94659116  0.40979337  0.00511703     0.25900
C737        C  0.93718293  0.43703550  0.01530156    -0.22100
C738        C  0.94777556  0.45062720  0.05174847     0.20800
F739        F  0.93863713  0.47668494  0.06315898    -0.12100
F740        F  0.47289809  0.44478135  0.11231168    -0.14400
F741        F  0.93627019  0.39569980  0.97098559    -0.14400
F742        F  0.97886312  0.37257641  0.01478332    -0.12100
C743        C  0.94347266  0.08579807  0.94907991     0.25900
C744        C  0.91847759  0.07170895  0.96191360    -0.22200
C745        C  0.90437423  0.08124766  0.99845753     0.20800
C746        C  0.91704551  0.10155882  0.02460412     0.25900
C747        C  0.94417116  0.11245561  0.01499972    -0.22100
C748        C  0.95628800  0.10597584  0.97547310     0.20800
F749        F  0.98163973  0.11739105  0.96366921    -0.12100
F750        F  0.95676295  0.07850062  0.91265022    -0.14400
F751        F  0.90370697  0.10873957  0.06104206    -0.14400
F752        F  0.87932931  0.06940238  0.01085391    -0.12100
C753        C  0.54562415  0.28161093  0.64128455     0.25900
C754        C  0.51703297  0.28950718  0.64251421    -0.22200
C755        C  0.99411823  0.26893245  0.64430023     0.20800
C756        C  0.50325153  0.23973761  0.64651979     0.25900
C757        C  0.53176148  0.23170035  0.64303491    -0.22100
C758        C  0.55290427  0.25297365  0.64075526     0.20800
F759        F  0.58063147  0.24609896  0.63759680    -0.12100
F760        F  0.56649265  0.30160864  0.63842462    -0.14400
F761        F  0.48223883  0.21986719  0.64858182    -0.14400
F762        F  0.96633981  0.27573885  0.64289458    -0.12100
C763        C  0.96478205  0.42610218  0.48595292     0.25900
C764        C  0.94982186  0.41441394  0.52044476    -0.22200
C765        C  0.92121899  0.42126756  0.52607391     0.20800
C766        C  0.90869178  0.44156316  0.50077241     0.25900
C767        C  0.92453236  0.45544442  0.46903174    -0.22100
C768        C  0.95225941  0.44643560  0.46060009     0.20800
F769        F  0.96800302  0.45842648  0.42935748    -0.12100
F770        F  0.99219296  0.41939874  0.47838504    -0.14400
F771        F  0.88151746  0.44871965  0.50915752    -0.14400
F772        F  0.90563610  0.40949284  0.55765011    -0.12100
C773        C  0.58762034  0.46674790  0.53440666     0.25900
C774        C  0.60742939  0.45185466  0.50991901    -0.22200
C775        C  0.61013719  0.42263253  0.51612979     0.20800
C776        C  0.59187584  0.40821420  0.54388805     0.25900
C777        C  0.57076581  0.42284772  0.56647135    -0.22100
C778        C  0.56981896  0.45250224  0.56282044     0.20800
F779        F  0.55073091  0.46771451  0.58524654    -0.12100
F780        F  0.58500504  0.49515765  0.53027031    -0.14400
F781        F  0.59425307  0.37974970  0.54729512    -0.14400
F782        F  0.62919421  0.40767878  0.49324267    -0.12100
C783        C  0.93381285  0.41679633  0.74461256     0.25900
C784        C  0.96187039  0.42392766  0.73291615    -0.22200
C785        C  0.97599307  0.44570082  0.75549050     0.20800
C786        C  0.96268154  0.45918742  0.78971571     0.25900
C787        C  0.93502580  0.45115025  0.80213856    -0.22100
C788        C  0.92063384  0.43022967  0.77861453     0.20800
F789        F  0.89344706  0.42290941  0.78813842    -0.12100
F790        F  0.91881832  0.39674355  0.72311050    -0.14400
F791        F  0.97718436  0.47952457  0.81140729    -0.14400
F792        F  0.00278340  0.45381414  0.74487926    -0.12100
O793        O  0.53396240  0.91556284  0.61331179    -0.55500
C794        C  0.97210497  0.90842960  0.69314512     0.77200
O795        O  0.98834780  0.89383310  0.54746763    -0.56600
C796        C  0.54839623  0.90165052  0.58667097     0.77100
C797        C  0.00366004  0.81919110  0.63437509     0.79500
Cd798      Cd  0.99456717  0.87869849  0.62013373     1.37500
O799        O  0.99778754  0.91147645  0.68218926    -0.55500
O800        O  0.52251149  0.84170104  0.65611084    -0.54300
C801        C  0.96191496  0.89654856  0.54878120     0.79500
O802        O  0.98286780  0.82724377  0.61288748    -0.56700
O803        O  0.95765205  0.89110949  0.67130231    -0.55100
O804        O  0.53973371  0.87666295  0.57888575    -0.55100
O805        O  0.94979958  0.88833553  0.58227161    -0.54300
O806        O  0.92604971  0.52850338  0.91618453    -0.55500
C807        C  0.92184323  0.96585092  0.83698886     0.77200
O808        O  0.90468686  0.94424218  0.95366558    -0.56600
C809        C  0.91247877  0.54036379  0.94586645     0.77100
C810        C  0.83663123  0.99608233  0.90493105     0.79500
Cd811      Cd  0.89685007  0.98859123  0.91322346     1.37500
O812        O  0.93055808  0.98921885  0.85226236    -0.55500
O813        O  0.85393914  0.00510927  0.87738363    -0.53500
C814        C  0.92255499  0.95529394  0.97862189     0.79500
O815        O  0.84699266  0.98158695  0.93427327    -0.56700
O816        O  0.90153019  0.95390136  0.85640194    -0.55100
O817        O  0.88995682  0.02966782  0.95734056    -0.55100
O818        O  0.92747866  0.98139613  0.97414178    -0.54300
O819        O  0.99897171  0.60590223  0.18536905    -0.55500
C820        C  0.55559191  0.61769935  0.09595850     0.77200
O821        O  0.95313932  0.62402338  0.09248407    -0.56600
C822        C  0.97600583  0.61417754  0.20170752     0.77100
C823        C  0.01084036  0.69907333  0.13508611     0.79500
Cd824      Cd  0.99853174  0.63919512  0.12451789     1.37500
O825        O  0.54308387  0.60613544  0.12700827    -0.55500
O826        O  0.52715668  0.68210742  0.15130151    -0.54300
C827        C  0.96272118  0.62259049  0.05530165     0.79500
O828        O  0.98931588  0.69016680  0.11510368    -0.56700
O829        O  0.54446372  0.63983179  0.08198854    -0.55100
O830        O  0.96454075  0.63482373  0.18374878    -0.55100
O831        O  0.98741251  0.63242074  0.04976813    -0.54300
O832        O  0.92754645  0.49538453  0.42202228    -0.55500
C833        C  0.92100880  0.55947016  0.34488805     0.77200
O834        O  0.84216367  0.54463495  0.42688010    -0.56600
C835        C  0.91326885  0.48108192  0.44865107     0.77100
C836        C  0.91375638  0.56803243  0.48839419     0.79500
Cd837      Cd  0.89325715  0.53427511  0.41819615     1.37500
O838        O  0.92263202  0.53322641  0.35213255    -0.55500
O839        O  0.89796556  0.57887416  0.46106704    -0.54300
C840        C  0.83326296  0.52415975  0.40446940     0.79500
O841        O  0.91805381  0.54191945  0.48437201    -0.56700
O842        O  0.90608635  0.57333964  0.37058468    -0.55100
O843        O  0.88939893  0.49085833  0.45890714    -0.55100
O844        O  0.85191414  0.50903834  0.38719507    -0.54300
O845        O  0.56161458  0.60471216  0.67558975    -0.55500
C846        C  0.50346176  0.62370355  0.59501188     0.77200
O847        O  0.56634724  0.69745815  0.62149544    -0.56600
C848        C  0.57904701  0.61679856  0.70015867     0.77100
C849        C  0.59413870  0.62752335  0.55769706     0.79500
Cd850      Cd  0.55690233  0.64521495  0.62606836     1.37500
O851        O  0.51469312  0.61336264  0.62754438    -0.55500
O852        O  0.60427863  0.63798622  0.59121827    -0.54300
C853        C  0.54414309  0.70453052  0.64130391     0.79500
O854        O  0.56754959  0.62727833  0.55516543    -0.56700
O855        O  0.51612231  0.64486473  0.57903300    -0.55100
O856        O  0.58508995  0.64229202  0.69154700    -0.55100
O857        O  0.52916304  0.68441227  0.65576995    -0.54300
O858        O  0.62879961  0.53231749  0.84623718    -0.55500
C859        C  0.63590273  0.47533314  0.93602150     0.77200
O860        O  0.70508509  0.53378741  0.93932203    -0.56600
C861        C  0.63209854  0.55861626  0.83992022     0.77100
C862        C  0.63227932  0.56184747  0.98389414     0.79500
Cd863      Cd  0.65611010  0.53096183  0.91333508     1.37500
O864        O  0.62205819  0.49078256  0.91132846    -0.55500
O865        O  0.65018176  0.57347550  0.95944986    -0.54300
C866        C  0.71661348  0.52241488  0.90751445     0.79500
O867        O  0.62653583  0.53616516  0.97649159    -0.56700
O868        O  0.66010414  0.48461892  0.94651260    -0.55100
O869        O  0.64745665  0.57167364  0.86638127    -0.55100
O870        O  0.70052684  0.51688871  0.87670662    -0.54300
O871        O  0.62240981  0.99264724  0.34751130    -0.55500
C872        C  0.64499336  0.55061729  0.44337573     0.77200
O873        O  0.62740449  0.98618135  0.47710997    -0.56600
C874        C  0.62987943  0.96853435  0.33413779     0.77100
C875        C  0.71479166  0.99886601  0.39993714     0.79500
Cd876      Cd  0.65423078  0.99262067  0.41071514     1.37500
O877        O  0.63366054  0.54371092  0.40848983    -0.55500
O878        O  0.69739637  0.01447317  0.38143620    -0.54300
C879        C  0.62800402  0.95956250  0.47792460     0.79500
O880        O  0.70423603  0.97933137  0.42245628    -0.56700
O881        O  0.65991612  0.03451172  0.45515728    -0.55100
O882        O  0.64883373  0.95670094  0.35520428    -0.55100
O883        O  0.64225328  0.94799279  0.44892649    -0.54300
O884        O  0.59021998  0.89044271  0.17219921    -0.55500
C885        C  0.50036768  0.89935365  0.08416493     0.77200
O886        O  0.56376429  0.91173990  0.06281936    -0.56600
C887        C  0.57680509  0.90811861  0.19431773     0.77100
C888        C  0.54112202  0.81973213  0.13004769     0.79500
Cd889      Cd  0.55246318  0.88013197  0.12030766     1.37500
O890        O  0.50904705  0.90918739  0.11917532    -0.55500
O891        O  0.52448653  0.83821132  0.14441302    -0.54300
C892        C  0.58722946  0.90149941  0.05223022     0.79500
O893        O  0.56380781  0.82901552  0.11347760    -0.56700
O894        O  0.51493659  0.87980546  0.06787811    -0.55100
O895        O  0.55134633  0.91177380  0.18382593    -0.55100
O896        O  0.59556561  0.88068483  0.07340875    -0.54300
C897        C  0.59108504  0.96332855  0.28016153     0.25900
C898        C  0.61691792  0.95425553  0.29680768    -0.22200
C899        C  0.62967578  0.93024408  0.27875672     0.20800
C900        C  0.61673344  0.91542006  0.24557596     0.25900
C901        C  0.59042756  0.92390487  0.22980402    -0.22100
C902        C  0.57789432  0.94822385  0.24730424     0.20800
F903        F  0.55297798  0.95771307  0.23231795    -0.12100
F904        F  0.57819789  0.98654377  0.29615571    -0.14400
F905        F  0.62998970  0.89250409  0.22924096    -0.14400
F906        F  0.65489098  0.92101543  0.29306899    -0.12100
C907        C  0.64585830  0.93993295  0.99456324     0.25900
C908        C  0.63073632  0.95168133  0.96084160    -0.22200
C909        C  0.60297392  0.94183018  0.95321013     0.20800
C910        C  0.58937869  0.92387134  0.98189681     0.25900
C911        C  0.60368287  0.91423291  0.01749297    -0.22100
C912        C  0.63250667  0.92093125  0.02225827     0.20800
F913        F  0.64691560  0.91143831  0.05604089    -0.12100
F914        F  0.66855864  0.43542890  0.98255633    -0.14400
F915        F  0.56159077  0.91721189  0.97626661    -0.14400
F916        F  0.58800419  0.95149743  0.92013269    -0.12100
C917        C  0.60059056  0.61028191  0.48363424     0.25900
C918        C  0.61170702  0.61436385  0.52428917    -0.22200
C919        C  0.63769504  0.60198464  0.53411278     0.20800
C920        C  0.65042289  0.58322018  0.50568317     0.25900
C921        C  0.63747024  0.57672600  0.46681124    -0.22100
C922        C  0.61374009  0.59219421  0.45482799     0.20800
F923        F  0.60180023  0.58814163  0.41646562    -0.12100
F924        F  0.57589223  0.62235864  0.47256567    -0.14400
F925        F  0.67433829  0.56994987  0.51754503    -0.14400
F926        F  0.64939381  0.60576399  0.57270966    -0.12100
C927        C  0.58578925  0.57323658  0.74462009     0.25900
C928        C  0.59212702  0.60194544  0.73638647    -0.22200
C929        C  0.61182633  0.61612707  0.76251361     0.20800
C930        C  0.62495175  0.60204917  0.79561270     0.25900
C931        C  0.61850619  0.57339451  0.80403275    -0.22100
C932        C  0.59848875  0.55931177  0.77831444     0.20800
F933        F  0.59080137  0.53202573  0.78595444    -0.12100
F934        F  0.56734665  0.55842398  0.72001055    -0.14400
F935        F  0.64411018  0.61663403  0.81929794    -0.14400
F936        F  0.61869277  0.64376013  0.75601313    -0.12100
C937        C  0.79420560  0.98760431  0.40057058     0.25900
C938        C  0.80273599  0.51796232  0.39932671    -0.22200
C939        C  0.78394123  0.53979772  0.39059635     0.20800
C940        C  0.75485261  0.53415309  0.38736110     0.25900
C941        C  0.74570310  0.00408309  0.39668322    -0.22100
C942        C  0.76499095  0.98195401  0.40114378     0.20800
F943        F  0.75560873  0.95485809  0.40590630    -0.12100
F944        F  0.81229325  0.96583606  0.40531749    -0.14400
F945        F  0.73733124  0.55593114  0.37940220    -0.14400
F946        F  0.79380174  0.56665285  0.38512554    -0.12100
C947        C  0.93482258  0.61357781  0.51569569     0.25900
C948        C  0.92825568  0.58476041  0.52165510    -0.22200
C949        C  0.93953525  0.57090836  0.55668726     0.20800
C950        C  0.95880835  0.58481779  0.58313507     0.25900
C951        C  0.96732494  0.61289664  0.57505500    -0.22100
C952        C  0.46342840  0.62537535  0.54326804     0.20800
F953        F  0.46917326  0.65314768  0.53595030    -0.12100
F954        F  0.92465267  0.62760503  0.48200893    -0.14400
F955        F  0.97105858  0.56982385  0.61419367    -0.14400
F956        F  0.93335885  0.54320953  0.56385187    -0.12100
C957        C  0.99821205  0.75040486  0.13142768     0.25900
C958        C  0.52012725  0.73041695  0.13072619    -0.22200
C959        C  0.54823191  0.73986542  0.13710169     0.20800
C960        C  0.55514154  0.76884054  0.13672045     0.25900
C961        C  0.53398094  0.78904452  0.13123271    -0.22100
C962        C  0.50593340  0.77962025  0.12468164     0.20800
F963        F  0.98557102  0.79844578  0.12391938    -0.12100
F964        F  0.97051009  0.74304449  0.12677845    -0.14400
F965        F  0.58252069  0.77713446  0.14217312    -0.14400
F966        F  0.56926113  0.72099335  0.14229868    -0.12100
C967        C  0.61265203  0.60650801  0.01400968     0.25900
C968        C  0.61753679  0.57743340  0.01791521    -0.22200
C969        C  0.60547223  0.56281881  0.05227003     0.20800
C970        C  0.58717999  0.57654649  0.08033569     0.25900
C971        C  0.58033759  0.60509537  0.07421859    -0.22100
C972        C  0.59440486  0.62023308  0.04198185     0.20800
F973        F  0.58929796  0.64807575  0.03586063    -0.12100
F974        F  0.62358921  0.62122652  0.98100758    -0.14400
F975        F  0.57478006  0.56131155  0.11168096    -0.14400
F976        F  0.61046003  0.53488090  0.05773375    -0.12100
C977        C  0.92897221  0.60134316  0.29757537     0.25900
C978        C  0.93561811  0.57339614  0.30861155    -0.22200
C979        C  0.95638465  0.55926267  0.28481430     0.20800
C980        C  0.96983131  0.57255225  0.25053776     0.25900
C981        C  0.96281154  0.60035165  0.23918735    -0.22100
C982        C  0.94214648  0.61446874  0.26312711     0.20800
F983        F  0.93460049  0.64121654  0.25339473    -0.12100
F984        F  0.90941066  0.61606638  0.31980915    -0.14400
F985        F  0.98911770  0.55782873  0.22777345    -0.14400
F986        F  0.96394529  0.53256961  0.29480664    -0.12100
C987        C  0.76011908  0.50701816  0.94484407     0.25900
C988        C  0.74700387  0.51505559  0.90725350    -0.22200
C989        C  0.76294555  0.51502589  0.86971252     0.20800
C990        C  0.79281550  0.01022076  0.86607900     0.25900
C991        C  0.80615995  0.00314419  0.90398699    -0.22100
C992        C  0.78858918  0.49936879  0.94502813     0.20800
F993        F  0.80050190  0.49229412  0.98218361    -0.12100
F994        F  0.74515933  0.50582067  0.98144593    -0.14400
F995        F  0.80736080  0.00961836  0.82910399    -0.14400
F996        F  0.75089289  0.52251710  0.83286354    -0.12100
C997        C  0.96701691  0.93793139  0.07329618     0.25900
C998        C  0.97686661  0.91088859  0.06236323    -0.22200
C999        C  0.96508967  0.89698623  0.02692149     0.20800
C1000       C  0.94598773  0.91082539  0.00098671     0.25900
C1001       C  0.93812077  0.93874880  0.01002704    -0.22100
C1002       C  0.94803501  0.95179709  0.04717503     0.20800
F1003       F  0.94012622  0.97846960  0.05745787    -0.12100
F1004       F  0.47558246  0.95258759  0.10588038    -0.14400
F1005       F  0.93703221  0.89769491  0.96519952    -0.14400
F1006       F  0.97304865  0.87043633  0.01600265    -0.12100
C1007       C  0.94981455  0.57780336  0.95835352     0.25900
C1008       C  0.92269518  0.56652499  0.96710286    -0.22200
C1009       C  0.90700693  0.57796326  0.00087748     0.20800
C1010       C  0.91921615  0.59807680  0.02782172     0.25900
C1011       C  0.94723097  0.60756566  0.02125826    -0.22100
C1012       C  0.96189553  0.59825980  0.98502117     0.20800
F1013       F  0.98896584  0.60691964  0.97732327    -0.12100
F1014       F  0.96564886  0.56750532  0.92603625    -0.14400
F1015       F  0.90416678  0.60675407  0.06196767    -0.14400
F1016       F  0.88043391  0.56829671  0.00980820    -0.12100
C1017       C  0.54642033  0.78507570  0.64507241     0.25900
C1018       C  0.51742903  0.79144880  0.64684810    -0.22200
C1019       C  0.99110609  0.76729608  0.63764016     0.20800
C1020       C  0.50642427  0.74098698  0.65012458     0.25900
C1021       C  0.53535202  0.73449397  0.64587323    -0.22100
C1022       C  0.55527746  0.75690733  0.64387417     0.20800
F1023       F  0.58335643  0.75163746  0.64035668    -0.12100
F1024       F  0.56617750  0.80616453  0.64225218    -0.14400
F1025       F  0.48649700  0.72003144  0.65230758    -0.14400
F1026       F  0.96312526  0.77335580  0.63736626    -0.12100
C1027       C  0.96184652  0.92189958  0.47979981     0.25900
C1028       C  0.94673302  0.91113554  0.51480491    -0.22200
C1029       C  0.91832360  0.91870705  0.52042669     0.20800
C1030       C  0.90650866  0.93946788  0.49525619     0.25900
C1031       C  0.92246192  0.95205208  0.46248694    -0.22100
C1032       C  0.94963689  0.94183587  0.45356636     0.20800
F1033       F  0.96538486  0.95266802  0.42142018    -0.12100
F1034       F  0.98914164  0.91467140  0.47245397    -0.14400
F1035       F  0.88006879  0.94844052  0.50482085    -0.14400
F1036       F  0.90247616  0.90758528  0.55224287    -0.12100
C1037       C  0.60115284  0.95643043  0.54631244     0.25900
C1038       C  0.61157662  0.94315388  0.50964692    -0.22200
C1039       C  0.60363336  0.91484783  0.50146060     0.20800
C1040       C  0.58426293  0.90076989  0.52778827     0.25900
C1041       C  0.57265163  0.91455809  0.56330694    -0.22100
C1042       C  0.58215460  0.94220803  0.57305243     0.20800
F1043       F  0.57220673  0.95602022  0.60758831    -0.12100
F1044       F  0.60858641  0.98360595  0.55572459    -0.14400
F1045       F  0.57563356  0.87420308  0.51678520    -0.14400
F1046       F  0.61301413  0.90134770  0.46629362    -0.12100
C1047       C  0.93146366  0.91770237  0.74233852     0.25900
C1048       C  0.95939023  0.92408871  0.72929689    -0.22200
C1049       C  0.97457177  0.94555928  0.75098915     0.20800
C1050       C  0.96235229  0.95959352  0.78559683     0.25900
C1051       C  0.93459857  0.95268111  0.79889538    -0.22100
C1052       C  0.91926270  0.93186213  0.77644308     0.20800
F1053       F  0.89218388  0.92508663  0.78741341    -0.12100
F1054       F  0.91578668  0.89741594  0.72244617    -0.14400
F1055       F  0.97802381  0.97926583  0.80683741    -0.14400
F1056       F  0.00127985  0.95299133  0.73893042    -0.12100
loop_ 
_geom_bond_atom_site_label_1 
_geom_bond_atom_site_label_2 
_geom_bond_distance 
_geom_bond_site_symmetry_2 
_ccdc_geom_bond_type 
O1            C4   1.270       .  A
O1         Cd534   2.478   1_455  S
C2           O11   1.265       .  A
C2            O7   1.268       .  A
C2          C256   1.494       .  S
O3            C9   1.262       .  A
O3           Cd6   2.489       .  S
C4           O12   1.265       .  A
C4          C249   1.487       .  S
C5           O10   1.266       .  A
C5          O536   1.264       .  A
C5          C754   1.481       .  S
Cd6          O13   2.476       .  S
Cd6          O11   2.472       .  S
Cd6           O7   2.500       .  S
Cd6          O10   2.482       .  S
Cd6         O529   2.471       .  S
Cd6         O540   2.480       .  S
Cd6         O536   2.471       .  S
O8          C533   1.264       .  A
O8         Cd534   2.463   1_455  S
C9           O13   1.264       .  A
C9          C236   1.486       .  S
O12        Cd534   2.431   1_455  S
O14          C17   1.270       .  A
O14        Cd283   2.448   1_545  S
C15          O24   1.266       .  A
C15          O20   1.267       .  A
C15         C259   1.489       .  S
O16          C22   1.268       .  A
O16         Cd19   2.515       .  S
C17         O289   1.264       .  A
C17         C216   1.478       .  S
C18          O23   1.268       .  A
C18          O21   1.266       .  A
C18         C199   1.484       .  S
Cd19         O26   2.442       .  S
Cd19         O25   2.423       .  S
Cd19         O24   2.481       .  S
Cd19         O20   2.480       .  S
Cd19         O23   2.460       .  S
Cd19         O21   2.480       .  S
Cd19        O278   2.473       .  S
C22          O26   1.260       .  A
C22         C209   1.478   1_556  S
O25         C281   1.264       .  A
O27          C30   1.264       .  A
O27         Cd32   2.483       .  S
C28          O37   1.263       .  A
C28          O33   1.268       .  A
C28         C179   1.479       .  S
O29          C35   1.264       .  A
O29         Cd32   2.498       .  S
C30          O38   1.268       .  A
C30         C189   1.486       .  S
C31          O36   1.268       .  A
C31         O562   1.266       .  A
C31         C694   1.484       .  S
Cd32         O39   2.443       .  S
Cd32         O38   2.470       .  S
Cd32         O36   2.480       .  S
Cd32        O565   2.439       .  S
Cd32        O561   2.493       .  S
Cd32        O562   2.464       .  S
O33        Cd560   2.487   1_455  S
O34         C559   1.266       .  A
O34        Cd560   2.467   1_455  S
C35          O39   1.261       .  A
C35         C219   1.483       .  S
O37        Cd560   2.447   1_455  S
O40          C43   1.270       .  A
O40         Cd45   2.470   1_565  S
C41          O50   1.261       .  A
C41          O46   1.268       .  A
C41         C186   1.490       .  S
O42          C48   1.267       .  A
O42         Cd45   2.473       .  S
C43          O51   1.265       .  A
C43         C503   1.487       .  S
C44          O49   1.261       .  A
C44          O47   1.268       .  A
C44         C156   1.482       .  S
Cd45         O52   2.460       .  S
Cd45         O51   2.449   1_545  S
Cd45         O50   2.456       .  S
Cd45         O46   2.517       .  S
Cd45         O49   2.427       .  S
Cd45         O47   2.519       .  S
C48          O52   1.265       .  A
C48         C146   1.476       .  S
O53          C56   1.267       .  A
O53         Cd58   2.499       .  S
C54          O63   1.266   1_655  A
C54          O59   1.269   1_655  A
C54         C687   1.487       .  S
O55          C61   1.266       .  A
O55         Cd58   2.491       .  S
C56          O64   1.265       .  A
C56         C136   1.492       .  S
C57          O62   1.259       .  A
C57          O60   1.264       .  A
C57         C126   1.486       .  S
Cd58         O65   2.485       .  S
Cd58         O64   2.480       .  S
Cd58         O63   2.448       .  S
Cd58         O59   2.487       .  S
Cd58         O62   2.460       .  S
Cd58         O60   2.501       .  S
C61          O65   1.265       .  A
C61         C229   1.483       .  S
O66          C69   1.268       .  A
O66         Cd71   2.495       .  S
C67          O76   1.263       .  A
C67          O72   1.269       .  A
C67         C380   1.484       .  S
O68          C74   1.266       .  A
O68         Cd71   2.450       .  S
C69          O77   1.266       .  A
C69         C139   1.495       .  S
C70          O75   1.262       .  A
C70          O73   1.268       .  A
C70         C176   1.482   1_556  S
Cd71         O78   2.483       .  S
Cd71         O77   2.477       .  S
Cd71         O76   2.440   1_545  S
Cd71         O72   2.487   1_545  S
Cd71         O75   2.427       .  S
Cd71         O73   2.509       .  S
C74          O78   1.267       .  A
C74         C196   1.480       .  S
O79          C82   1.267       .  A
O79         Cd84   2.517       .  S
C80          O85   1.273       .  A
C80         O353   1.265       .  A
C80         C129   1.484       .  S
O81          C87   1.260       .  A
O81         Cd84   2.495       .  S
C82          O90   1.265       .  A
C82         C106   1.501       .  S
C83          O88   1.267       .  A
C83          O86   1.266       .  A
C83         C149   1.487       .  S
Cd84         O91   2.496       .  S
Cd84         O90   2.510       .  S
Cd84         O89   2.455       .  S
Cd84         O88   2.495       .  S
Cd84         O86   2.477       .  S
Cd84        O349   2.491       .  S
O85        Cd348   2.481   1_545  S
C87          O91   1.264       .  A
C87         C246   1.488       .  S
O89         C344   1.265       .  A
O92          C95   1.268       .  A
O92         Cd97   2.506       .  S
C93         O102   1.262       .  A
C93          O98   1.270       .  A
C93         C734   1.478   1_455  S
O94         C100   1.262       .  A
O94         Cd97   2.492       .  S
C95         O103   1.269       .  A
C95         C109   1.502       .  S
C96         O101   1.267       .  A
C96          O99   1.262       .  A
C96         C169   1.484       .  S
Cd97        O104   2.465       .  S
Cd97        O103   2.505       .  S
Cd97        O102   2.421       .  S
Cd97         O98   2.500       .  S
Cd97        O101   2.502       .  S
Cd97         O99   2.461       .  S
C100        O104   1.264       .  A
C100        C119   1.478       .  S
C105        C106   1.410       .  A
C105        C110   1.406       .  A
C105        F112   1.357       .  S
C106        C107   1.411       .  A
C107        C108   1.408       .  A
C107        F114   1.358       .  S
C108        C109   1.412       .  A
C108        F113   1.358       .  S
C109        C110   1.411       .  A
C110        F111   1.357       .  S
C115        C116   1.410       .  A
C115        C120   1.396   1_556  A
C115        F386   1.358       .  S
C116        C331   1.486       .  S
C116        C117   1.410       .  A
C117        C118   1.404       .  A
C117        F124   1.358       .  S
C118        C119   1.409   1_556  A
C118        F123   1.358       .  S
C119        C120   1.402       .  A
C120        F121   1.358       .  S
F122        C379   1.358       .  S
C125        C126   1.411       .  A
C125        C130   1.399       .  A
C125        F132   1.357       .  S
C126        C127   1.407       .  A
C127        C128   1.399       .  A
C127        F134   1.358       .  S
C128        C129   1.411       .  A
C128        F133   1.358       .  S
C129        C130   1.406       .  A
C130        F131   1.358       .  S
C135        C136   1.410       .  A
C135        C140   1.404       .  A
C135        F142   1.358       .  S
C136        C137   1.409       .  A
C137        C138   1.402       .  A
C137        F144   1.358       .  S
C138        C139   1.411       .  A
C138        F143   1.358       .  S
C139        C140   1.410       .  A
C140        F141   1.358       .  S
C145        C150   1.404       .  A
C145        C410   1.408       .  A
C145        F152   1.358       .  S
C146        C147   1.403       .  A
C146        C409   1.408   1_545  A
C147        C148   1.399       .  A
C147        F154   1.357       .  S
C148        C413   1.408       .  A
C148        F153   1.358       .  S
C149        C150   1.408       .  A
C149        C412   1.409       .  A
C150        F151   1.358       .  S
C155        C156   1.406       .  A
C155        C688   1.405       .  A
C155        F162   1.358       .  S
C156        C157   1.407       .  A
C157        C158   1.397       .  A
C157        F164   1.358       .  S
C158        C159   1.408       .  A
C158        F163   1.357       .  S
C159        C582   1.492       .  S
C159        C688   1.414       .  A
C160        C683   1.400       .  A
C160        C687   1.411       .  A
C160        F161   1.357       .  S
C165        C694   1.406       .  A
C165        C698   1.401       .  A
C165        F172   1.358       .  S
C166        C559   1.490       .  S
C166        C167   1.411       .  A
C166        C693   1.410   1_455  A
C167        C168   1.401       .  A
C167        F174   1.357       .  S
C168        C169   1.404       .  A
C168        F173   1.357       .  S
C169        C170   1.409       .  A
C170        C693   1.401   1_455  A
C170        F699   1.358   1_455  S
F171        C698   1.358       .  S
C175        C176   1.407       .  A
C175        C180   1.403       .  A
C175        F182   1.358   1_554  S
C176        C177   1.409       .  A
C177        C178   1.397       .  A
C177        F184   1.358       .  S
C178        C179   1.404       .  A
C178        F183   1.358       .  S
C179        C180   1.408       .  A
C180        F181   1.358       .  S
C185        C186   1.412       .  A
C185        C190   1.398       .  A
C185        F192   1.357       .  S
C186        C187   1.408       .  A
C187        C188   1.405       .  A
C187        F194   1.358       .  S
C188        C189   1.412       .  A
C188        F193   1.357       .  S
C189        C190   1.404       .  A
C190        F191   1.358       .  S
C195        C196   1.408       .  A
C195        C200   1.397       .  A
C195        F202   1.358       .  S
C196        C197   1.407       .  A
C197        C462   1.402       .  A
C197        F204   1.358       .  S
C198        C199   1.409       .  A
C198        C461   1.405       .  A
C198        F203   1.358       .  S
C199        C464   1.407       .  A
C200        C463   1.405       .  A
C200        F201   1.358   1_545  S
C205        C206   1.407       .  A
C205        C210   1.398       .  A
C205        F740   1.358       .  S
C206        C621   1.482       .  S
C206        C207   1.411       .  A
C207        C208   1.401       .  A
C207        F214   1.358       .  S
C208        C209   1.404       .  A
C208        F213   1.358   1_554  S
C209        C210   1.407       .  A
C210        F211   1.358       .  S
F212        C733   1.358       .  S
C215        C216   1.404       .  A
C215        C220   1.394       .  A
C215        F222   1.358       .  S
C216        C217   1.410       .  A
C217        C218   1.400   1_556  A
C217        F224   1.359   1_556  S
C218        C219   1.409       .  A
C218        F223   1.358       .  S
C219        C220   1.409   1_554  A
C220        F221   1.357       .  S
C225        C226   1.409       .  A
C225        C230   1.401       .  A
C225        F232   1.358       .  S
C226        C533   1.484       .  S
C226        C755   1.407   1_455  A
C227        C754   1.405       .  A
C227        C756   1.401       .  A
C227        F234   1.358       .  S
C228        C229   1.408       .  A
C228        C755   1.402   1_455  A
C228        F233   1.358   1_455  S
C229        C230   1.406       .  A
C230        F231   1.358       .  S
C235        C236   1.410       .  A
C235        C240   1.401       .  A
C235        F242   1.357       .  S
C236        C237   1.406       .  A
C237        C238   1.400       .  A
C237        F244   1.359       .  S
C238        C239   1.412       .  A
C238        F243   1.358       .  S
C239        C307   1.490       .  S
C239        C240   1.408       .  A
C240        F241   1.358       .  S
C245        C246   1.411       .  A
C245        C250   1.403       .  A
C245        F252   1.358       .  S
C246        C247   1.407       .  A
C247        C248   1.398       .  A
C247        F254   1.358       .  S
C248        C249   1.411       .  A
C248        F253   1.358       .  S
C249        C250   1.408       .  A
C250        F251   1.358       .  S
C255        C256   1.412       .  A
C255        C260   1.402       .  A
C255        F262   1.358       .  S
C256        C257   1.410       .  A
C257        C258   1.403       .  A
C257        F264   1.357       .  S
C258        C259   1.409       .  A
C258        F263   1.358       .  S
C259        C260   1.408       .  A
C260        F261   1.358       .  S
O265        C268   1.269       .  A
O265       Cd798   2.476   1_455  S
C266        O275   1.264       .  A
C266        O271   1.267       .  A
C266        C520   1.493       .  S
O267        C273   1.258       .  A
O267       Cd270   2.439       .  S
C268        O276   1.266       .  A
C268        C513   1.483       .  S
C269        O274   1.267       .  A
C269        O800   1.264       .  A
C269       C1018   1.483       .  S
Cd270       O793   2.465       .  S
Cd270       O277   2.520       .  S
Cd270       O804   2.450       .  S
Cd270       O275   2.470       .  S
Cd270       O271   2.509       .  S
Cd270       O274   2.497       .  S
Cd270       O800   2.470       .  S
O272        C797   1.264       .  A
O272       Cd798   2.453   1_455  S
C273        O277   1.267       .  A
C273        C500   1.482       .  S
O276       Cd798   2.427   1_455  S
O278        C281   1.270       .  A
C279        O288   1.267       .  A
C279        O284   1.267       .  A
C279        C523   1.487       .  S
O280        C286   1.268       .  A
O280       Cd283   2.510       .  S
C281        C480   1.482       .  S
C282        O287   1.268       .  A
C282        O285   1.264   1_565  A
C282        C463   1.478   1_565  S
Cd283       O290   2.445       .  S
Cd283       O289   2.423   1_565  S
Cd283       O288   2.465       .  S
Cd283       O284   2.486       .  S
Cd283       O287   2.461       .  S
Cd283       O285   2.449   1_565  S
C286        O290   1.260       .  A
C286        C473   1.481   1_556  S
O291        C294   1.266       .  A
O291       Cd296   2.501       .  S
C292        O301   1.265       .  A
C292        O297   1.266       .  A
C292        C443   1.488       .  S
O293        C299   1.265       .  A
O293       Cd296   2.521       .  S
C294        O302   1.266       .  A
C294        C453   1.497       .  S
C295        O300   1.267       .  A
C295        O826   1.266       .  A
C295        C958   1.488       .  S
Cd296       O303   2.442       .  S
Cd296       O302   2.490       .  S
Cd296       O829   2.422       .  S
Cd296       O825   2.497       .  S
Cd296       O300   2.493       .  S
Cd296       O826   2.482       .  S
O297       Cd824   2.459   1_455  S
O298        C823   1.266       .  A
O298       Cd824   2.474   1_455  S
C299        O303   1.258       .  A
C299        C483   1.486       .  S
O301       Cd824   2.474   1_455  S
O304        C307   1.271       .  A
O304       Cd309   2.482       .  S
C305        O314   1.264       .  A
C305        O310   1.266       .  A
C305        C450   1.498       .  S
O306        C312   1.267       .  A
O306       Cd309   2.492       .  S
C307        O315   1.266       .  A
C308        O313   1.260       .  A
C308        O311   1.265       .  A
C308        C420   1.484       .  S
Cd309       O316   2.478       .  S
Cd309       O315   2.459       .  S
Cd309       O314   2.494       .  S
Cd309       O310   2.517       .  S
Cd309       O313   2.460       .  S
Cd309       O311   2.524       .  S
C312        O316   1.265       .  A
C312        C410   1.483       .  S
O317        C320   1.265       .  A
O317       Cd322   2.496       .  S
C318        O327   1.265   1_655  A
C318        O323   1.271   1_655  A
C318        C951   1.482       .  S
O319        C325   1.267       .  A
O319       Cd322   2.477       .  S
C320        O328   1.265       .  A
C320        C400   1.494       .  S
C321        O326   1.259       .  A
C321        O324   1.267       .  A
C321        C390   1.480       .  S
Cd322       O329   2.462       .  S
Cd322       O328   2.496       .  S
Cd322       O327   2.429       .  S
Cd322       O323   2.474       .  S
Cd322       O326   2.443       .  S
Cd322       O324   2.515       .  S
C325        O329   1.266       .  A
C325        C493   1.481       .  S
O330        C333   1.268       .  A
O330       Cd335   2.474       .  S
C331        O340   1.263       .  A
C331        O336   1.269       .  A
O332        C338   1.268       .  A
O332       Cd335   2.467       .  S
C333        O341   1.266       .  A
C333        C403   1.491       .  S
C334        O339   1.262       .  A
C334        O337   1.270       .  A
C334        C440   1.487   1_556  S
Cd335       O342   2.480       .  S
Cd335       O341   2.477       .  S
Cd335       O340   2.423       .  S
Cd335       O336   2.503       .  S
Cd335       O339   2.430       .  S
Cd335       O337   2.527       .  S
C338        O342   1.267       .  A
C338        C460   1.483       .  S
O343        C346   1.269       .  A
O343       Cd348   2.520       .  S
C344        O349   1.270       .  A
C344        C393   1.489       .  S
O345        C351   1.259       .  A
O345       Cd348   2.483       .  S
C346        O354   1.264       .  A
C346        C370   1.495       .  S
C347        O352   1.267       .  A
C347        O350   1.264   1_565  A
C347        C413   1.479   1_565  S
Cd348       O355   2.485       .  S
Cd348       O354   2.459       .  S
Cd348       O353   2.418   1_565  S
Cd348       O352   2.487       .  S
Cd348       O350   2.454   1_565  S
C351        O355   1.263       .  A
C351        C510   1.485       .  S
O356        C359   1.264       .  A
O356       Cd361   2.479       .  S
C357        O366   1.265       .  A
C357        O362   1.272       .  A
C357        C998   1.488   1_455  S
O358        C364   1.258       .  A
O358       Cd361   2.454       .  S
C359        O367   1.267       .  A
C359        C373   1.498       .  S
C360        O365   1.265       .  A
C360        O363   1.262       .  A
C360        C433   1.483       .  S
Cd361       O368   2.514       .  S
Cd361       O367   2.524       .  S
Cd361       O366   2.432       .  S
Cd361       O362   2.491       .  S
Cd361       O365   2.504       .  S
Cd361       O363   2.462       .  S
C364        O368   1.265       .  A
C364        C383   1.486       .  S
C369        C370   1.409       .  A
C369        C374   1.407       .  A
C369        F376   1.358       .  S
C370        C371   1.410       .  A
C371        C372   1.401       .  A
C371        F378   1.358       .  S
C372        C373   1.411       .  A
C372        F377   1.358       .  S
C373        C374   1.412       .  A
C374        F375   1.357       .  S
C379        C380   1.411       .  A
C379        C384   1.400   1_556  A
C380        C381   1.406       .  A
C381        C382   1.398       .  A
C381        F388   1.358       .  S
C382        C383   1.411   1_556  A
C382        F387   1.358       .  S
C383        C384   1.407       .  A
C384        F385   1.358       .  S
C389        C390   1.408       .  A
C389        C394   1.400       .  A
C389        F396   1.358       .  S
C390        C391   1.404       .  A
C391        C392   1.402       .  A
C391        F398   1.358       .  S
C392        C393   1.412       .  A
C392        F397   1.357       .  S
C393        C394   1.408       .  A
C394        F395   1.358       .  S
C399        C400   1.411       .  A
C399        C404   1.402       .  A
C399        F406   1.357       .  S
C400        C401   1.410       .  A
C401        C402   1.403       .  A
C401        F408   1.358       .  S
C402        C403   1.410       .  A
C402        F407   1.358       .  S
C403        C404   1.409       .  A
C404        F405   1.358       .  S
C409        C414   1.401       .  A
C409        F416   1.358       .  S
C410        C411   1.405       .  A
C411        C412   1.402       .  A
C411        F418   1.357       .  S
C412        F417   1.358       .  S
C413        C414   1.406   1_545  A
C414        F415   1.358       .  S
C419        C420   1.407       .  A
C419        C952   1.403       .  A
C419        F426   1.358       .  S
C420        C421   1.408       .  A
C421        C422   1.400       .  A
C421        F428   1.358       .  S
C422        C423   1.407       .  A
C422        F427   1.358       .  S
C423        C846   1.487       .  S
C423        C952   1.411       .  A
C424        C947   1.400       .  A
C424        C951   1.411       .  A
C424        F425   1.358       .  S
C429        C958   1.408       .  A
C429        C962   1.403       .  A
C429        F436   1.358       .  S
C430        C823   1.486       .  S
C430        C957   1.407   1_455  A
C430        C431   1.410       .  A
C431        C432   1.403       .  A
C431        F438   1.358       .  S
C432        C433   1.406       .  A
C432        F437   1.358       .  S
C433        C434   1.408       .  A
C434        C957   1.400   1_455  A
C434        F963   1.358   1_455  S
F435        C962   1.358       .  S
C439        C440   1.407       .  A
C439        C444   1.405       .  A
C439        F446   1.357       .  S
C440        C441   1.409       .  A
C441        C442   1.396       .  A
C441        F448   1.358       .  S
C442        C443   1.408       .  A
C442        F447   1.358       .  S
C443        C444   1.412       .  A
C444        F445   1.358       .  S
C449        C450   1.411       .  A
C449        C454   1.404       .  A
C449        F456   1.358       .  S
C450        C451   1.411       .  A
C451        C452   1.405       .  A
C451        F458   1.357       .  S
C452        C453   1.411       .  A
C452        F457   1.358       .  S
C453        C454   1.410       .  A
C454        F455   1.358       .  S
C459        C460   1.406       .  A
C459        C464   1.398       .  A
C459        F466   1.358       .  S
C460        C461   1.408       .  A
C461        F468   1.358       .  S
C462        C463   1.408       .  A
C462        F467   1.358       .  S
C464        F465   1.358       .  S
C469        C470   1.409       .  A
C469        C474   1.401       .  A
C469       F1004   1.358       .  S
C470        C885   1.487       .  S
C470        C471   1.411       .  A
C471        C472   1.400       .  A
C471        F478   1.358       .  S
C472        C473   1.404       .  A
C472        F477   1.358   1_554  S
C473        C474   1.409       .  A
C474        F475   1.359       .  S
F476        C997   1.357       .  S
C479        C480   1.405       .  A
C479        C484   1.397       .  A
C479        F486   1.358       .  S
C480        C481   1.410   1_556  A
C481        C482   1.400       .  A
C481        F488   1.358       .  S
C482        C483   1.408       .  A
C482        F487   1.358       .  S
C483        C484   1.411   1_554  A
C484        F485   1.358       .  S
C489        C490   1.408       .  A
C489        C494   1.399       .  A
C489        F496   1.358       .  S
C490        C797   1.480       .  S
C490       C1019   1.406   1_455  A
C491       C1018   1.405       .  A
C491       C1020   1.402       .  A
C491        F498   1.358       .  S
C492       C1019   1.402       .  A
C492        C493   1.409   1_655  A
C492        F497   1.358       .  S
C493        C494   1.405       .  A
C494        F495   1.358       .  S
C499        C500   1.410       .  A
C499        C504   1.398       .  A
C499        F506   1.358       .  S
C500        C501   1.405       .  A
C501        C502   1.400       .  A
C501        F508   1.358       .  S
C502        C503   1.413       .  A
C502        F507   1.357       .  S
C503        C504   1.407       .  A
C504        F505   1.358       .  S
C509        C510   1.411       .  A
C509        C514   1.401       .  A
C509        F516   1.358       .  S
C510        C511   1.407       .  A
C511        C512   1.396       .  A
C511        F518   1.358       .  S
C512        C513   1.409       .  A
C512        F517   1.358       .  S
C513        C514   1.408       .  A
C514        F515   1.358       .  S
C519        C520   1.411       .  A
C519        C524   1.399       .  A
C519        F526   1.358       .  S
C520        C521   1.411       .  A
C521        C522   1.404       .  A
C521        F528   1.358       .  S
C522        C523   1.409       .  A
C522        F527   1.358       .  S
C523        C524   1.406       .  A
C524        F525   1.358       .  S
O529        C532   1.267       .  A
C530        O539   1.264       .  A
C530        O535   1.268   1_655  A
C530        C784   1.493       .  S
O531        C537   1.258       .  A
O531       Cd534   2.466       .  S
C532        O540   1.266       .  A
C532        C777   1.490       .  S
C533        O538   1.266   1_455  A
Cd534       O541   2.488       .  S
Cd534       O539   2.446       .  S
Cd534       O535   2.516   1_655  S
Cd534       O538   2.497       .  S
C537        O541   1.265       .  A
C537        C764   1.484       .  S
O542        C545   1.270       .  A
O542       Cd811   2.464   1_545  S
C543        O552   1.266       .  A
C543        O548   1.266       .  A
C543        C787   1.487       .  S
O544        C550   1.267       .  A
O544       Cd547   2.506       .  S
C545        O817   1.264       .  A
C545        C744   1.480       .  S
C546        O551   1.266       .  A
C546        O549   1.266       .  A
C546        C727   1.486       .  S
Cd547       O806   2.472       .  S
Cd547       O554   2.452       .  S
Cd547       O553   2.404       .  S
Cd547       O552   2.463       .  S
Cd547       O548   2.495       .  S
Cd547       O551   2.468       .  S
Cd547       O549   2.484       .  S
C550        O554   1.259       .  A
C550        C737   1.480   1_556  S
O553        C809   1.264       .  A
O555        C558   1.265       .  A
O555       Cd560   2.495       .  S
C556        O565   1.263       .  A
C556        O561   1.268       .  A
C556        C707   1.484       .  S
O557        C563   1.263       .  A
O557       Cd560   2.471       .  S
C558        O566   1.267       .  A
C558        C717   1.492       .  S
C559        O564   1.267   1_455  A
Cd560       O567   2.473       .  S
Cd560       O566   2.499       .  S
Cd560       O564   2.474       .  S
C563        O567   1.260       .  A
C563        C747   1.482       .  S
O568        C571   1.271       .  A
O568       Cd573   2.469   1_565  S
C569        O578   1.264       .  A
C569        O574   1.267       .  A
C569        C714   1.495       .  S
O570        C576   1.268       .  A
O570       Cd573   2.479       .  S
C571        O579   1.264       .  A
C571       C1031   1.481       .  S
C572        O577   1.262       .  A
C572        O575   1.269       .  A
C572        C684   1.476       .  S
Cd573       O580   2.461       .  S
Cd573       O579   2.419   1_545  S
Cd573       O578   2.481       .  S
Cd573       O574   2.507       .  S
Cd573       O577   2.432       .  S
Cd573       O575   2.502       .  S
C576        O580   1.263       .  A
C576        C674   1.479       .  S
O581        C584   1.269       .  A
O581       Cd586   2.525       .  S
C582        O591   1.264       .  A
C582        O587   1.268       .  A
O583        C589   1.267       .  A
O583       Cd586   2.491       .  S
C584        O592   1.266       .  A
C584        C664   1.500       .  S
C585        O590   1.261       .  A
C585        O588   1.263       .  A
C585        C654   1.483       .  S
Cd586       O593   2.475       .  S
Cd586       O592   2.478       .  S
Cd586       O591   2.480       .  S
Cd586       O587   2.481       .  S
Cd586       O590   2.475       .  S
Cd586       O588   2.482       .  S
C589        O593   1.266       .  A
C589        C757   1.485       .  S
O594        C597   1.269       .  A
O594       Cd599   2.513       .  S
C595        O604   1.263       .  A
C595        O600   1.270       .  A
C595        C908   1.486       .  S
O596        C602   1.265       .  A
O596       Cd599   2.469       .  S
C597        O605   1.267       .  A
C597        C667   1.502       .  S
C598        O603   1.261       .  A
C598        O601   1.268       .  A
C598        C704   1.479   1_556  S
Cd599       O606   2.497       .  S
Cd599       O605   2.500       .  S
Cd599       O604   2.444   1_545  S
Cd599       O600   2.495   1_545  S
Cd599       O603   2.425       .  S
Cd599       O601   2.512       .  S
C602        O606   1.268       .  A
C602        C724   1.485       .  S
O607        C610   1.269       .  A
O607       Cd612   2.512       .  S
C608        O881   1.266       .  A
C608        O613   1.272       .  A
C608        C657   1.487       .  S
O609        C615   1.263       .  A
O609       Cd612   2.450       .  S
C610        O618   1.264       .  A
C610        C634   1.492       .  S
C611        O616   1.269       .  A
C611        O614   1.267       .  A
C611        C677   1.483       .  S
Cd612       O619   2.497       .  S
Cd612       O618   2.465       .  S
Cd612       O617   2.424       .  S
Cd612       O877   2.470       .  S
Cd612       O616   2.461       .  S
Cd612       O614   2.458       .  S
O613       Cd876   2.474   1_545  S
C615        O619   1.268       .  A
C615        C774   1.482       .  S
O617        C872   1.265       .  A
O620        C623   1.265       .  A
O620       Cd625   2.500       .  S
C621        O630   1.267       .  A
C621        O626   1.271       .  A
O622        C628   1.260       .  A
O622       Cd625   2.422       .  S
C623        O631   1.265       .  A
C623        C637   1.498       .  S
C624        O629   1.267       .  A
C624        O627   1.263       .  A
C624        C697   1.485       .  S
Cd625       O632   2.529       .  S
Cd625       O631   2.512       .  S
Cd625       O630   2.435       .  S
Cd625       O626   2.462       .  S
Cd625       O629   2.490       .  S
Cd625       O627   2.463       .  S
C628        O632   1.267       .  A
C628        C647   1.479       .  S
C633        C634   1.408       .  A
C633        C638   1.406       .  A
C633        F640   1.358       .  S
C634        C635   1.409       .  A
C635        C636   1.402       .  A
C635        F642   1.358       .  S
C636        C637   1.411       .  A
C636        F641   1.357       .  S
C637        C638   1.412       .  A
C638        F639   1.357       .  S
C643        C644   1.412       .  A
C643        C648   1.403   1_556  A
C643        F914   1.358       .  S
C644        C859   1.485       .  S
C644        C645   1.408       .  A
C645        C646   1.396       .  A
C645        F652   1.358       .  S
C646        C647   1.407   1_556  A
C646        F651   1.359       .  S
C647        C648   1.404       .  A
C648        F649   1.357       .  S
F650        C907   1.358   1_554  S
C653        C654   1.410       .  A
C653        C658   1.399       .  A
C653        F660   1.358       .  S
C654        C655   1.406       .  A
C655        C656   1.400       .  A
C655        F662   1.358       .  S
C656        C657   1.412       .  A
C656        F661   1.358       .  S
C657        C658   1.407       .  A
C658        F659   1.358       .  S
C663        C664   1.411       .  A
C663        C668   1.407       .  A
C663        F670   1.357       .  S
C664        C665   1.410       .  A
C665        C666   1.405       .  A
C665        F672   1.358       .  S
C666        C667   1.412       .  A
C666        F671   1.358       .  S
C667        C668   1.412       .  A
C668        F669   1.358       .  S
C673        C938   1.406       .  A
C673        C678   1.401       .  A
C673        F680   1.358       .  S
C674        C937   1.409   1_545  A
C674        C675   1.403       .  A
C675        C676   1.398       .  A
C675        F682   1.357       .  S
C676        C941   1.408       .  A
C676        F681   1.358       .  S
C677        C940   1.410       .  A
C677        C678   1.408       .  A
C678        F679   1.358       .  S
C683        C684   1.402       .  A
C683        F690   1.358       .  S
C684        C685   1.406       .  A
C685        C686   1.400       .  A
C685        F692   1.359       .  S
C686        C687   1.409       .  A
C686        F691   1.358       .  S
C688        F689   1.358       .  S
C693        F700   1.358       .  S
C694        C695   1.409       .  A
C695        C696   1.401       .  A
C695        F702   1.358       .  S
C696        C697   1.406       .  A
C696        F701   1.358       .  S
C697        C698   1.411       .  A
C703        C704   1.404       .  A
C703        C708   1.401       .  A
C703        F710   1.357   1_554  S
C704        C705   1.408       .  A
C705        C706   1.398       .  A
C705        F712   1.358       .  S
C706        C707   1.407       .  A
C706        F711   1.358       .  S
C707        C708   1.411       .  A
C708        F709   1.358       .  S
C713        C714   1.412       .  A
C713        C718   1.403       .  A
C713        F720   1.357       .  S
C714        C715   1.409       .  A
C715        C716   1.405       .  A
C715        F722   1.358       .  S
C716        C717   1.410       .  A
C716        F721   1.357       .  S
C717        C718   1.406       .  A
C718        F719   1.358       .  S
C723        C724   1.409       .  A
C723        C728   1.399       .  A
C723        F730   1.358       .  S
C724        C725   1.407       .  A
C725        C990   1.403       .  A
C725        F732   1.357       .  S
C726        C989   1.404       .  A
C726        C727   1.409       .  A
C726        F731   1.357       .  S
C727        C992   1.408       .  A
C728        C991   1.407       .  A
C728        F729   1.358   1_545  S
C733        C734   1.404       .  A
C733        C738   1.401       .  A
C734        C735   1.409       .  A
C735        C736   1.397       .  A
C735        F742   1.358       .  S
C736        C737   1.404       .  A
C736        F741   1.358   1_554  S
C737        C738   1.411       .  A
C738        F739   1.358       .  S
C743        C744   1.406       .  A
C743        C748   1.399       .  A
C743        F750   1.358       .  S
C744        C745   1.410       .  A
C745        C746   1.395   1_556  A
C745        F752   1.358   1_556  S
C746        C747   1.406       .  A
C746        F751   1.358       .  S
C747        C748   1.410   1_554  A
C748        F749   1.358       .  S
C753        C754   1.408       .  A
C753        C758   1.402       .  A
C753        F760   1.358       .  S
C755        F762   1.358       .  S
C756        C757   1.409       .  A
C756        F761   1.358       .  S
C757        C758   1.408       .  A
C758        F759   1.358       .  S
C763        C764   1.412       .  A
C763        C768   1.400       .  A
C763        F770   1.358       .  S
C764        C765   1.405       .  A
C765        C766   1.398       .  A
C765        F772   1.358       .  S
C766        C767   1.412       .  A
C766        F771   1.357       .  S
C767        C835   1.487       .  S
C767        C768   1.408       .  A
C768        F769   1.359       .  S
C773        C774   1.407       .  A
C773        C778   1.399       .  A
C773        F780   1.358       .  S
C774        C775   1.405       .  A
C775        C776   1.403       .  A
C775        F782   1.358       .  S
C776        C777   1.412       .  A
C776        F781   1.358       .  S
C777        C778   1.409       .  A
C778        F779   1.358       .  S
C783        C784   1.411       .  A
C783        C788   1.397       .  A
C783        F790   1.357       .  S
C784        C785   1.412       .  A
C785        C786   1.406       .  A
C785        F792   1.358   1_655  S
C786        C787   1.410       .  A
C786        F791   1.358       .  S
C787        C788   1.405       .  A
C788        F789   1.358       .  S
O793        C796   1.270       .  A
C794        O803   1.264       .  A
C794        O799   1.267       .  A
C794       C1048   1.490       .  S
O795        C801   1.258       .  A
O795       Cd798   2.444       .  S
C796        O804   1.267       .  A
C796       C1041   1.487       .  S
C797        O802   1.266   1_455  A
Cd798       O805   2.491       .  S
Cd798       O803   2.452       .  S
Cd798       O799   2.502       .  S
Cd798       O802   2.495       .  S
C801        O805   1.266       .  A
C801       C1028   1.481       .  S
O806        C809   1.269       .  A
C807        O816   1.265       .  A
C807        O812   1.267       .  A
C807       C1051   1.486       .  S
O808        C814   1.266       .  A
O808       Cd811   2.502       .  S
C809       C1008   1.480       .  S
C810        O815   1.267       .  A
C810        O813   1.266   1_565  A
C810        C991   1.484   1_565  S
Cd811       O818   2.454       .  S
Cd811       O817   2.411   1_565  S
Cd811       O816   2.441       .  S
Cd811       O812   2.500       .  S
Cd811       O815   2.463       .  S
Cd811       O813   2.473   1_565  S
C814        O818   1.261       .  A
C814       C1001   1.480   1_556  S
O819        C822   1.266       .  A
O819       Cd824   2.503       .  S
C820        O829   1.264       .  A
C820        O825   1.270       .  A
C820        C971   1.485       .  S
O821        C827   1.264       .  A
O821       Cd824   2.474       .  S
C822        O830   1.266       .  A
C822        C981   1.491       .  S
C823        O828   1.267   1_455  A
Cd824       O831   2.454       .  S
Cd824       O830   2.474       .  S
Cd824       O828   2.477       .  S
C827        O831   1.261       .  A
C827       C1011   1.481       .  S
O832        C835   1.271       .  A
O832       Cd837   2.475       .  S
C833        O842   1.262       .  A
C833        O838   1.267       .  A
C833        C978   1.492       .  S
O834        C840   1.265       .  A
O834       Cd837   2.485       .  S
C835        O843   1.266       .  A
C836        O841   1.260       .  A
C836        O839   1.266       .  A
C836        C948   1.480       .  S
Cd837       O844   2.479       .  S
Cd837       O843   2.439       .  S
Cd837       O842   2.462       .  S
Cd837       O838   2.509       .  S
Cd837       O841   2.436       .  S
Cd837       O839   2.509       .  S
C840        O844   1.264       .  A
C840        C938   1.477       .  S
O845        C848   1.265       .  A
O845       Cd850   2.502       .  S
C846        O855   1.265       .  A
C846        O851   1.270       .  A
O847        C853   1.268       .  A
O847       Cd850   2.508       .  S
C848        O856   1.266       .  A
C848        C928   1.496       .  S
C849        O854   1.259       .  A
C849        O852   1.265       .  A
C849        C918   1.482       .  S
Cd850       O857   2.465       .  S
Cd850       O856   2.484       .  S
Cd850       O855   2.447       .  S
Cd850       O851   2.480       .  S
Cd850       O854   2.453       .  S
Cd850       O852   2.518       .  S
C853        O857   1.264       .  A
C853       C1021   1.489       .  S
O858        C861   1.268       .  A
O858       Cd863   2.502       .  S
C859        O868   1.264       .  A
C859        O864   1.268       .  A
O860        C866   1.265       .  A
O860       Cd863   2.464       .  S
C861        O869   1.265       .  A
C861        C931   1.496       .  S
C862        O867   1.261       .  A
C862        O865   1.267       .  A
C862        C968   1.480   1_556  S
Cd863       O870   2.491       .  S
Cd863       O869   2.485       .  S
Cd863       O868   2.449       .  S
Cd863       O864   2.471       .  S
Cd863       O867   2.451       .  S
Cd863       O865   2.497       .  S
C866        O870   1.267       .  A
C866        C988   1.483       .  S
O871        C874   1.268       .  A
O871       Cd876   2.517       .  S
C872        O877   1.272       .  A
C872        C921   1.484       .  S
O873        C879   1.260       .  A
O873       Cd876   2.472       .  S
C874        O882   1.262       .  A
C874        C898   1.491       .  S
C875        O880   1.267       .  A
C875        O878   1.264   1_565  A
C875        C941   1.481   1_565  S
Cd876       O883   2.498       .  S
Cd876       O882   2.451       .  S
Cd876       O881   2.436   1_565  S
Cd876       O880   2.486       .  S
Cd876       O878   2.453   1_565  S
C879        O883   1.264       .  A
C879       C1038   1.484       .  S
O884        C887   1.263       .  A
O884       Cd889   2.478       .  S
C885        O894   1.267       .  A
C885        O890   1.270       .  A
O886        C892   1.260       .  A
O886       Cd889   2.421       .  S
C887        O895   1.265       .  A
C887        C901   1.491       .  S
C888        O893   1.265       .  A
C888        O891   1.265       .  A
C888        C961   1.485       .  S
Cd889       O896   2.516       .  S
Cd889       O895   2.504       .  S
Cd889       O894   2.441       .  S
Cd889       O890   2.488       .  S
Cd889       O893   2.492       .  S
Cd889       O891   2.488       .  S
C892        O896   1.266       .  A
C892        C911   1.473       .  S
C897        C898   1.408       .  A
C897        C902   1.404       .  A
C897        F904   1.357       .  S
C898        C899   1.410       .  A
C899        C900   1.400       .  A
C899        F906   1.358       .  S
C900        C901   1.409       .  A
C900        F905   1.358       .  S
C901        C902   1.411       .  A
C902        F903   1.357       .  S
C907        C908   1.414       .  A
C907        C912   1.402   1_556  A
C908        C909   1.407       .  A
C909        C910   1.397       .  A
C909        F916   1.357       .  S
C910        C911   1.404   1_556  A
C910        F915   1.358       .  S
C911        C912   1.402       .  A
C912        F913   1.358       .  S
C917        C918   1.409       .  A
C917        C922   1.397       .  A
C917        F924   1.357       .  S
C918        C919   1.407       .  A
C919        C920   1.401       .  A
C919        F926   1.358       .  S
C920        C921   1.412       .  A
C920        F925   1.358       .  S
C921        C922   1.405       .  A
C922        F923   1.358       .  S
C927        C928   1.411       .  A
C927        C932   1.404       .  A
C927        F934   1.357       .  S
C928        C929   1.410       .  A
C929        C930   1.402       .  A
C929        F936   1.358       .  S
C930        C931   1.411       .  A
C930        F935   1.357       .  S
C931        C932   1.410       .  A
C932        F933   1.358       .  S
C937        C942   1.402       .  A
C937        F944   1.358       .  S
C938        C939   1.403       .  A
C939        C940   1.400       .  A
C939        F946   1.358       .  S
C940        F945   1.358       .  S
C941        C942   1.407   1_545  A
C942        F943   1.358       .  S
C947        C948   1.406       .  A
C947        F954   1.358       .  S
C948        C949   1.408       .  A
C949        C950   1.397       .  A
C949        F956   1.358       .  S
C950        C951   1.406       .  A
C950        F955   1.358       .  S
C952        F953   1.358       .  S
C957        F964   1.358       .  S
C958        C959   1.410       .  A
C959        C960   1.403       .  A
C959        F966   1.358       .  S
C960        C961   1.407       .  A
C960        F965   1.358       .  S
C961        C962   1.408       .  A
C967        C968   1.404       .  A
C967        C972   1.398       .  A
C967        F974   1.358   1_554  S
C968        C969   1.409       .  A
C969        C970   1.401       .  A
C969        F976   1.358       .  S
C970        C971   1.408       .  A
C970        F975   1.358       .  S
C971        C972   1.411       .  A
C972        F973   1.358       .  S
C977        C978   1.411       .  A
C977        C982   1.400       .  A
C977        F984   1.357       .  S
C978        C979   1.409       .  A
C979        C980   1.405       .  A
C979        F986   1.358       .  S
C980        C981   1.411       .  A
C980        F985   1.357       .  S
C981        C982   1.407       .  A
C982        F983   1.358       .  S
C987        C988   1.407       .  A
C987        C992   1.399       .  A
C987        F994   1.358       .  S
C988        C989   1.407       .  A
C989        F996   1.358       .  S
C990        C991   1.409       .  A
C990        F995   1.358       .  S
C992        F993   1.358       .  S
C997        C998   1.408       .  A
C997       C1002   1.400       .  A
C998        C999   1.413       .  A
C999       C1000   1.400       .  A
C999       F1006   1.358       .  S
C1000      C1001   1.404       .  A
C1000      F1005   1.358   1_554  S
C1001      C1002   1.407       .  A
C1002      F1003   1.358       .  S
C1007      C1008   1.407       .  A
C1007      C1012   1.398       .  A
C1007      F1014   1.358       .  S
C1008      C1009   1.410   1_556  A
C1009      C1010   1.395       .  A
C1009      F1016   1.358       .  S
C1010      C1011   1.406       .  A
C1010      F1015   1.358       .  S
C1011      C1012   1.411   1_554  A
C1012      F1013   1.358       .  S
C1017      C1018   1.408       .  A
C1017      C1022   1.403       .  A
C1017      F1024   1.358       .  S
C1019      F1026   1.358       .  S
C1020      C1021   1.411       .  A
C1020      F1025   1.358       .  S
C1021      C1022   1.408       .  A
C1022      F1023   1.358       .  S
C1027      C1028   1.412       .  A
C1027      C1032   1.397       .  A
C1027      F1034   1.358       .  S
C1028      C1029   1.405       .  A
C1029      C1030   1.397       .  A
C1029      F1036   1.358       .  S
C1030      C1031   1.411       .  A
C1030      F1035   1.358       .  S
C1031      C1032   1.406       .  A
C1032      F1033   1.358       .  S
C1037      C1038   1.409       .  A
C1037      C1042   1.400       .  A
C1037      F1044   1.358       .  S
C1038      C1039   1.407       .  A
C1039      C1040   1.400       .  A
C1039      F1046   1.358       .  S
C1040      C1041   1.411       .  A
C1040      F1045   1.358       .  S
C1041      C1042   1.408       .  A
C1042      F1043   1.358       .  S
C1047      C1048   1.409       .  A
C1047      C1052   1.396       .  A
C1047      F1054   1.357       .  S
C1048      C1049   1.412       .  A
C1049      C1050   1.406       .  A
C1049      F1056   1.358   1_655  S
C1050      C1051   1.409       .  A
C1050      F1055   1.358       .  S
C1051      C1052   1.406       .  A
C1052      F1053   1.358       .  S
