geometry optimzed in LAMMPS
_audit_creation_date              2020-12-01 
_audit_creation_method            'lammps2cif' 
_symmetry_space_group_name_H-M    'P1' 
_symmetry_Int_Tables_number       1 
_symmetry_cell_setting            triclinic 
loop_ 
_symmetry_equiv_pos_as_xyz 
  x,y,z 
_cell_length_a                    56.5756158 
_cell_length_b                    56.48686550507558 
_cell_length_c                    57.4341845893295 
_cell_angle_alpha                 89.60489669791276 
_cell_angle_beta                  90.42421751509232 
_cell_angle_gamma                 120.49485806434434 
loop_ 
_atom_site_label 
_atom_site_type_symbol 
_atom_site_fract_x 
_atom_site_fract_y 
_atom_site_fract_z 
_atom_site_charge 
O1          O  0.73235909  0.88536700  0.47022879    -0.56800
C2          C  0.69353020  0.92594476  0.42930607     0.75900
O3          O  0.77943047  0.96188726  0.43196140    -0.57900
C4          C  0.75151309  0.88161138  0.46326196     0.75800
C5          C  0.71847168  0.88301446  0.39465364     0.78200
Cd6        Cd  0.73708343  0.91537883  0.43627931     1.37500
O7          O  0.69288660  0.91217734  0.44721149    -0.56800
O8          O  0.70587329  0.87516199  0.41387015    -0.55600
C9          C  0.77949663  0.96810671  0.45323298     0.78200
O10         O  0.74148233  0.90545584  0.39475941    -0.58000
O11         O  0.71467435  0.93584147  0.41668891    -0.56400
O12         O  0.76277342  0.89270381  0.44407312    -0.56400
O13         O  0.76038469  0.95037727  0.46585189    -0.55600
O14         O  0.55572266  0.04835537  0.34479161    -0.56800
C15         C  0.59556756  0.00696443  0.38243831     0.75900
O16         O  0.63347565  0.09332793  0.38355272    -0.57900
C17         C  0.55402075  0.06892495  0.35136266     0.75800
C18         C  0.55217927  0.03210073  0.41764698     0.78200
Cd19       Cd  0.58628726  0.05191625  0.37756329     1.37500
O20         O  0.58368652  0.00856473  0.36406216    -0.56800
O21         O  0.54453446  0.02095545  0.39782747    -0.55600
C22         C  0.63973270  0.09488531  0.36212724     0.78200
O23         O  0.57536361  0.05426889  0.41887476    -0.58000
O24         O  0.60368372  0.02628014  0.39696758    -0.56400
O25         O  0.56637161  0.08058476  0.37008165    -0.56400
O26         O  0.62187967  0.07678003  0.34881882    -0.55600
O27         O  0.09537632  0.31108262  0.93635946    -0.56800
C28         C  0.12945094  0.25409543  0.95112671     0.75900
O29         O  0.04881129  0.22758846  0.91832282    -0.57900
C30         C  0.08052183  0.30975893  0.91905445     0.75800
C31         C  0.12913737  0.28731070  0.88346969     0.78200
Cd32       Cd  0.09555277  0.26865565  0.92404455     1.37500
O33         O  0.12605470  0.27367273  0.95766402    -0.56800
O34         O  0.13601620  0.30031788  0.90254007    -0.55600
C35         C  0.04330128  0.22610349  0.93990800     0.78200
O36         O  0.10674470  0.26427981  0.88316005    -0.58000
O37         O  0.11737765  0.24182246  0.93250565    -0.56400
O38         O  0.07262383  0.28959631  0.90545397    -0.56400
O39         O  0.06187035  0.24340507  0.95321586    -0.55600
O40         O  0.94748210  0.44372232  0.85603314    -0.56800
C41         C  0.99399075  0.40918186  0.89129138     0.75900
O42         O  0.94754205  0.42530255  0.93225395    -0.57900
C43         C  0.92844662  0.44704885  0.86397560     0.75800
C44         C  0.90420561  0.35987436  0.88217723     0.78200
Cd45       Cd  0.94701921  0.41582689  0.89028634     1.37500
O46         O  0.98636965  0.41428875  0.87193153    -0.56800
O47         O  0.92357006  0.37328747  0.86804199    -0.55600
C48         C  0.96795549  0.44964207  0.93059231     0.78200
O49         O  0.90443933  0.37197726  0.90080644    -0.58000
O50         O  0.98038128  0.40783582  0.90905723    -0.56400
O51         O  0.91845336  0.43599279  0.88343880    -0.56400
O52         O  0.97684519  0.45858761  0.91030642    -0.55600
O53         O  0.33277332  0.09271112  0.52788268    -0.56800
C54         C  0.27299138  0.12434390  0.52111986     0.75900
O55         O  0.25019174  0.04213977  0.55090217    -0.57900
C56         C  0.33379576  0.07828390  0.54458720     0.75800
C57         C  0.31046638  0.12142375  0.58570203     0.78200
Cd58       Cd  0.29005418  0.08986726  0.54402288     1.37500
O59         O  0.29026572  0.11955563  0.51135395    -0.56800
O60         O  0.32322909  0.12885107  0.56653570    -0.55600
C61         C  0.24625644  0.03687492  0.52925636     0.78200
O62         O  0.28707811  0.09944627  0.58565169    -0.58000
O63         O  0.26458667  0.11385101  0.54109328    -0.56400
O64         O  0.31458965  0.06907771  0.55926475    -0.56400
O65         O  0.26176372  0.05592110  0.51543052    -0.55600
O66         O  0.42031608  0.97187549  0.60110896    -0.56800
C67         C  0.45147188  0.91897509  0.62602083     0.75900
O68         O  0.37663541  0.88224675  0.59053363    -0.57900
C69         C  0.41250188  0.97416750  0.58079043     0.75800
C70         C  0.45222706  0.93939898  0.55129993     0.78200
Cd71       Cd  0.41936796  0.92831378  0.59162741     1.37500
O72         O  0.45480884  0.94274083  0.62280571    -0.56800
O73         O  0.46131055  0.95133390  0.57058450    -0.55600
C74         C  0.36375730  0.88929013  0.60425609     0.78200
O75         O  0.42767386  0.91925499  0.55085002    -0.58000
O76         O  0.43282007  0.89965723  0.61412872    -0.56400
O77         O  0.40790114  0.95549672  0.56634306    -0.56400
O78         O  0.37635426  0.91387728  0.61133630    -0.55600
O79         O  0.40852518  0.22245792  0.79208673    -0.56800
C80         C  0.37670538  0.27058719  0.75275868     0.75900
O81         O  0.46181566  0.30355668  0.75632469    -0.57900
C82         C  0.43154542  0.22367825  0.79039452     0.75800
C83         C  0.40024265  0.22357932  0.72059642     0.78200
Cd84       Cd  0.41878654  0.25756398  0.76108833     1.37500
O85         O  0.37794795  0.26068020  0.77243733    -0.56800
O86         O  0.38779473  0.21617731  0.73988933    -0.55600
C87         C  0.46122756  0.31088560  0.77712927     0.78200
O88         O  0.42321473  0.24607043  0.72030843    -0.58000
O89         O  0.39499322  0.27487633  0.73806962    -0.56400
O90         O  0.44806876  0.24013173  0.77530273    -0.56400
O91         O  0.44133648  0.29406934  0.78965706    -0.55600
O92         O  0.22937372  0.38856695  0.67434906    -0.56800
C93         C  0.27664505  0.35474791  0.71283125     0.75900
O94         O  0.30663663  0.43974162  0.71049350    -0.57900
C95         C  0.22359846  0.40617623  0.68185153     0.75800
C96         C  0.23118626  0.37722863  0.74908802     0.78200
Cd97       Cd  0.26169395  0.39586256  0.70709658     1.37500
O98         O  0.26408614  0.35484792  0.69436427    -0.56800
O99         O  0.22317081  0.36422312  0.73003982    -0.55600
C100        C  0.31268111  0.43946407  0.68923365     0.78200
O101        O  0.25318775  0.40063935  0.74871278    -0.58000
O102        O  0.28209039  0.37333833  0.72758507    -0.56400
O103        O  0.23512046  0.41832110  0.70064934    -0.56400
O104        O  0.29532224  0.41966125  0.67696412    -0.55600
O105        O  0.75819816  0.64388801  0.26841696    -0.56800
C106        C  0.79235877  0.58760251  0.27991497     0.75900
O107        O  0.70967513  0.56191230  0.24763201    -0.57900
C108        C  0.74901855  0.64758611  0.24928074     0.75800
C109        C  0.78948886  0.61834056  0.21196836     0.78200
Cd110      Cd  0.75775461  0.60202678  0.25362458     1.37500
O111        O  0.78814568  0.60633019  0.28728759    -0.56800
O112        O  0.79817854  0.63120990  0.23102636    -0.55600
C113        C  0.70404320  0.56053891  0.26916686     0.78200
O114        O  0.76620871  0.59620602  0.21225562    -0.58000
O115        O  0.78088033  0.57622836  0.26087600    -0.56400
O116        O  0.74417554  0.63055643  0.23323383    -0.56400
O117        O  0.72287988  0.57750596  0.28241270    -0.55600
O118        O  0.66029505  0.75833984  0.20084916    -0.56800
C119        C  0.60014802  0.78647723  0.18818233     0.75900
O120        O  0.57641545  0.70562499  0.22031342    -0.57900
C121        C  0.66125347  0.74450224  0.21804887     0.75800
C122        C  0.63385674  0.78624988  0.25619770     0.78200
Cd123      Cd  0.61632299  0.75366428  0.21460056     1.37500
O124        O  0.61942365  0.78315501  0.18081659    -0.56800
O125        O  0.64654909  0.79423441  0.23704181    -0.55600
C126        C  0.57506665  0.69959923  0.19885535     0.78200
O127        O  0.61145244  0.76322551  0.25616767    -0.58000
O128        O  0.58917167  0.77502837  0.20733580    -0.56400
O129        O  0.64164126  0.73507649  0.23232602    -0.56400
O130        O  0.59205362  0.71829961  0.18548394    -0.55600
O131        O  0.06082979  0.55453526  0.13368460    -0.56800
C132        C  0.03122409  0.59827107  0.08927815     0.75900
O133        O  0.12029705  0.63133790  0.09925569    -0.57900
C134        C  0.08465890  0.55778051  0.13605141     0.75800
C135        C  0.06196854  0.55318206  0.06255694     0.78200
Cd136      Cd  0.07451939  0.58866349  0.10148315     1.37500
O137        O  0.03256610  0.59040728  0.10983785    -0.56800
O138        O  0.04954497  0.54521408  0.08178388    -0.55600
C139        C  0.11395673  0.64448873  0.11335066     0.78200
O140        O  0.08256044  0.57749391  0.06167266    -0.58000
O141        O  0.04942847  0.60114792  0.07500565    -0.56400
O142        O  0.10346583  0.57594936  0.12346950    -0.56400
O143        O  0.08982039  0.63199694  0.12138340    -0.55600
O144        O  0.88975547  0.71482800  0.00611535    -0.56800
C145        C  0.93376116  0.68303458  0.04606159     0.75900
O146        O  0.97000582  0.76952145  0.04321628    -0.57900
C147        C  0.89152710  0.73818530  0.00594248     0.75800
C148        C  0.88940343  0.71248610  0.07800960     0.78200
Cd149      Cd  0.92377212  0.72705417  0.03764774     1.37500
O150        O  0.92441672  0.68472012  0.02629670    -0.56800
O151        O  0.88048103  0.70126735  0.05840508    -0.55600
C152        C  0.97790998  0.76907642  0.02262059     0.78200
O153        O  0.91371627  0.73308977  0.07860937    -0.58000
O154        O  0.93829696  0.70136162  0.06078524    -0.56400
O155        O  0.90812911  0.75602594  0.02019272    -0.56400
O156        O  0.96113921  0.74965652  0.00967914    -0.55600
O157        O  0.51033918  0.94988534  0.13847162    -0.56800
C158        C  0.59361587  0.98871957  0.10088404     0.75900
O159        O  0.53950315  0.90443169  0.09776802    -0.57900
C160        C  0.48724555  0.93308281  0.12929363     0.75800
C161        C  0.52534518  0.96911909  0.06524231     0.78200
Cd162      Cd  0.53720567  0.94701524  0.10527135     1.37500
O163        O  0.58120557  0.98783115  0.11960592    -0.56800
O164        O  0.52968968  0.98027858  0.08511333    -0.55600
C165        C  0.54362328  0.90154910  0.11913020     0.78200
O166        O  0.52497968  0.94641192  0.06388689    -0.58000
O167        O  0.58029990  0.97026530  0.08597542    -0.56400
O168        O  0.48770985  0.92346960  0.10952735    -0.56400
O169        O  0.54404763  0.91891402  0.13317701    -0.55600
O170        O  0.85323589  0.11403903  0.01250409    -0.56800
C171        C  0.77463181  0.07258873  0.05346718     0.75900
O172        O  0.82486531  0.03784286  0.05292175    -0.57900
C173        C  0.87634534  0.11699856  0.01833762     0.75800
C174        C  0.84548617  0.11995215  0.08559873     0.78200
Cd175      Cd  0.82920859  0.08410920  0.04635488     1.37500
O176        O  0.78631345  0.08379023  0.03430650    -0.56800
O177        O  0.84304508  0.12750552  0.06533685    -0.55600
C178        C  0.81823671  0.03071393  0.03180643     0.78200
O179        O  0.84317844  0.09637037  0.08756193    -0.58000
O180        O  0.78766624  0.06605330  0.06750641    -0.56400
O181        O  0.87718531  0.10490490  0.03676348    -0.56400
O182        O  0.81703284  0.04796757  0.01843199    -0.55600
O183        O  0.82824849  0.21925974  0.29007777    -0.56800
C184        C  0.90907675  0.26140721  0.25297674     0.75900
O185        O  0.84211036  0.24189885  0.21447965    -0.57900
C186        C  0.80502280  0.21550251  0.28365047     0.75800
C187        C  0.86650752  0.30428495  0.27214234     0.78200
Cd188      Cd  0.85386384  0.25052283  0.25675016     1.37500
O189        O  0.89580533  0.25061130  0.27163114    -0.56800
O190        O  0.86583143  0.28595226  0.28531323    -0.55600
C191        C  0.83995796  0.21832092  0.21532858     0.78200
O192        O  0.86055734  0.29801307  0.25080493    -0.58000
O193        O  0.89680864  0.26668332  0.23717465    -0.56400
O194        O  0.80459966  0.22761693  0.26509008    -0.56400
O195        O  0.84172240  0.20947317  0.23522444    -0.55600
O196        O  0.11064211  0.35944367  0.20722582    -0.56800
C197        C  0.19940782  0.41414724  0.19296566     0.75900
O198        O  0.15661238  0.44847091  0.22480042    -0.57900
C199        C  0.09724886  0.35638489  0.22583245     0.75800
C200        C  0.16671507  0.38453500  0.26413093     0.78200
Cd201      Cd  0.15235278  0.40178914  0.22179292     1.37500
O202        O  0.17534429  0.39721883  0.18573355    -0.56800
O203        O  0.16391211  0.37304386  0.24462567    -0.55600
C204        C  0.13831066  0.44295393  0.20936767     0.78200
O205        O  0.16438010  0.40581224  0.26433433    -0.58000
O206        O  0.20113477  0.42493616  0.21259034    -0.56400
O207        O  0.10962064  0.37346983  0.24197350    -0.56400
O208        O  0.12749828  0.41945176  0.20025405    -0.55600
O209        O  0.16914958  0.27848415  0.47107869    -0.56800
C210        C  0.25147991  0.31645041  0.42992521     0.75900
O211        O  0.20916659  0.25184779  0.46652158    -0.57900
C212        C  0.14648519  0.25805312  0.46424226     0.75800
C213        C  0.18031481  0.29437658  0.39829886     0.78200
Cd214      Cd  0.19574764  0.27475535  0.43812071     1.37500
O215        O  0.24053712  0.31705486  0.44910608    -0.56800
O216        O  0.18475292  0.30580841  0.41806735    -0.55600
C217        C  0.20662614  0.23262737  0.45356859     0.78200
O218        O  0.18122171  0.27231438  0.39705848    -0.58000
O219        O  0.23688228  0.29706503  0.41609746    -0.56400
O220        O  0.14706461  0.24615157  0.44578173    -0.56400
O221        O  0.19850181  0.23223247  0.43275932    -0.55600
O222        O  0.44596134  0.41858034  0.36394093    -0.56800
C223        C  0.53639278  0.45520283  0.34813301     0.75900
O224        O  0.50644241  0.43745038  0.41702470    -0.57900
C225        C  0.43434591  0.40768365  0.38319482     0.75800
C226        C  0.47883149  0.36866630  0.36170301     0.78200
Cd227      Cd  0.48957051  0.42197299  0.37664081     1.37500
O228        O  0.51292554  0.45089240  0.34178740    -0.56800
O229        O  0.47609992  0.38548093  0.34895598    -0.55600
C230        C  0.50445264  0.45891671  0.41524524     0.78200
O231        O  0.48660250  0.37599056  0.38263851    -0.58000
O232        O  0.53768414  0.44461683  0.36729904    -0.56400
O233        O  0.44810297  0.40323544  0.39821206    -0.56400
O234        O  0.49754437  0.46374414  0.39550913    -0.55600
O235        O  0.56991935  0.59796843  0.60284954    -0.56800
C236        C  0.47862767  0.56095335  0.61278265     0.75900
O237        O  0.53270256  0.64319114  0.57871766    -0.57900
C238        C  0.58338879  0.60889624  0.58430052     0.75800
C239        C  0.51385017  0.56285858  0.54695721     0.78200
Cd240      Cd  0.52781429  0.59704066  0.58720277     1.37500
O241        O  0.50200537  0.56721300  0.62107392    -0.56800
O242        O  0.51987259  0.55673334  0.56651477    -0.55600
C243        C  0.53697764  0.65059281  0.59992064     0.78200
O244        O  0.51270407  0.58481162  0.54588590    -0.58000
O245        O  0.47836361  0.57123916  0.59317758    -0.56400
O246        O  0.57137584  0.61453125  0.56849108    -0.56400
O247        O  0.53660498  0.63347694  0.61443057    -0.55600
O248        O  0.78423313  0.69400882  0.53879910    -0.56800
C249        C  0.87620864  0.75049792  0.52986821     0.75900
O250        O  0.81884777  0.77424665  0.56311714    -0.57900
C251        C  0.77051833  0.68993999  0.55737815     0.75800
C252        C  0.83918908  0.71507827  0.59748979     0.78200
Cd253      Cd  0.82641209  0.73436724  0.55582682     1.37500
O254        O  0.85336091  0.73039815  0.52311624    -0.56800
O255        O  0.83429518  0.70262478  0.57819826    -0.55600
C256        C  0.81417700  0.77621172  0.54170386     0.78200
O257        O  0.84021867  0.73815794  0.59745852    -0.58000
O258        O  0.87587309  0.76230758  0.54845224    -0.56400
O259        O  0.78280816  0.70569670  0.57428185    -0.56400
O260        O  0.81586367  0.75979599  0.52793535    -0.55600
O261        O  0.83984081  0.61402492  0.80399549    -0.56800
C262        C  0.91871506  0.64278321  0.76622337     0.75900
O263        O  0.86492050  0.55960484  0.76769335    -0.57900
C264        C  0.81799313  0.59059239  0.80378719     0.75800
C265        C  0.84702220  0.62198265  0.73230688     0.78200
Cd266      Cd  0.86248261  0.60250114  0.77280854     1.37500
O267        O  0.90717612  0.64252904  0.78525748    -0.56800
O268        O  0.85466379  0.63516885  0.75125129    -0.55600
C269        C  0.87198436  0.55953018  0.78880369     0.78200
O270        O  0.84426422  0.59812265  0.73226719    -0.58000
O271        O  0.90456359  0.62427002  0.75155996    -0.56400
O272        O  0.81666687  0.57335750  0.78903421    -0.56400
O273        O  0.87449440  0.57881826  0.80161869    -0.55600
O274        O  0.17704908  0.77656592  0.68169054    -0.56800
C275        C  0.10193566  0.73330417  0.72292384     0.75900
O276        O  0.15895461  0.70109485  0.71619303    -0.57900
C277        C  0.19733590  0.77285704  0.68010131     0.75800
C278        C  0.17519828  0.77816607  0.75462883     0.78200
Cd279      Cd  0.15555215  0.74345567  0.71434799     1.37500
O280        O  0.11259372  0.74229456  0.70297884    -0.56800
O281        O  0.17165388  0.78634037  0.73505492    -0.55600
C282        C  0.13856065  0.68754352  0.70266261     0.78200
O283        O  0.17274588  0.75447823  0.75529203    -0.58000
O284        O  0.11611240  0.72940541  0.73791330    -0.56400
O285        O  0.19764838  0.75529102  0.69367941    -0.56400
O286        O  0.12603063  0.69946954  0.69554334    -0.55600
O287        O  0.51684875  0.05821359  0.85865275    -0.56800
C288        C  0.44327328  0.02114092  0.89642590     0.75900
O289        O  0.50609918  0.07816725  0.93224998    -0.57900
C290        C  0.53805146  0.08202890  0.85793552     0.75800
C291        C  0.47796516  0.10875592  0.87494807     0.78200
Cd292      Cd  0.49458109  0.07044254  0.88981521     1.37500
O293        O  0.45485883  0.02633363  0.87664220    -0.56800
O294        O  0.46526329  0.08380871  0.86892831    -0.55600
C295        C  0.51538418  0.06184373  0.93236437     0.78200
O296        O  0.49787134  0.11618273  0.88904970    -0.58000
O297        O  0.45554890  0.03840832  0.91244713    -0.56400
O298        O  0.53862568  0.09989269  0.87145425    -0.56400
O299        O  0.51748565  0.05276293  0.91291609    -0.55600
O300        O  0.17436478  0.88167878  0.96364285    -0.56800
C301        C  0.25906105  0.92285599  0.92867151     0.75900
O302        O  0.19106667  0.90093998  0.88982452    -0.57900
C303        C  0.15242067  0.87873979  0.95454961     0.75800
C304        C  0.21486730  0.96519754  0.94649426     0.78200
Cd305      Cd  0.20383404  0.91176862  0.93133610     1.37500
O306        O  0.24534741  0.91158067  0.94706650    -0.56800
O307        O  0.21521638  0.94749654  0.95988256    -0.55600
C308        C  0.18950056  0.87762514  0.89090247     0.78200
O309        O  0.20915131  0.95851364  0.92518149    -0.58000
O310        O  0.24734662  0.92892836  0.91287785    -0.56400
O311        O  0.15465703  0.89055044  0.93517405    -0.56400
O312        O  0.19335125  0.86997027  0.91069365    -0.55600
O313        O  0.57011020  0.49999751  0.85337427    -0.56800
C314        C  0.60239338  0.57519575  0.89456349     0.75900
O315        O  0.58523764  0.50712226  0.93189162    -0.57900
C316        C  0.56703884  0.47670108  0.85862587     0.75800
C317        C  0.65314870  0.53817510  0.88150684     0.78200
Cd318      Cd  0.59647980  0.52213118  0.89023537     1.37500
O319        O  0.59442952  0.56246254  0.87528400    -0.56800
O320        O  0.64163299  0.55002602  0.87213113    -0.55600
C321        C  0.56156832  0.50452009  0.93036654     0.78200
O322        O  0.63888147  0.51900154  0.89584492    -0.58000
O323        O  0.60723961  0.56328563  0.91106748    -0.56400
O324        O  0.57715968  0.47504783  0.87783826    -0.56400
O325        O  0.55401167  0.50777827  0.91039443    -0.55600
O326        O  0.69521994  0.77414608  0.93809266    -0.56800
C327        C  0.75688881  0.86098593  0.95661002     0.75900
O328        O  0.78355772  0.81332152  0.92249306    -0.57900
C329        C  0.69213050  0.76161065  0.91893584     0.75800
C330        C  0.72375571  0.83203799  0.88501797     0.78200
Cd331      Cd  0.73973857  0.81434202  0.92612852     1.37500
O332        O  0.73652140  0.83780376  0.96231101    -0.56800
O333        O  0.71243857  0.82910429  0.90461475    -0.55600
C334        C  0.77689610  0.79486427  0.93802006     0.78200
O335        O  0.74473726  0.82925242  0.88449026    -0.58000
O336        O  0.76869523  0.86191077  0.93771189    -0.56400
O337        O  0.71057468  0.77367422  0.90372164    -0.56400
O338        O  0.75383271  0.78602081  0.94756144    -0.55600
O339        O  0.78932274  0.17229880  0.80772565    -0.56800
C340        C  0.75350833  0.09649316  0.76634941     0.75900
O341        O  0.71712133  0.15265292  0.76829850    -0.57900
C342        C  0.78817690  0.19413406  0.80573637     0.75800
C343        C  0.79334923  0.16834606  0.73148503     0.78200
Cd344      Cd  0.75979746  0.14982061  0.77239455     1.37500
O345        O  0.75891963  0.10741431  0.78647760    -0.56800
O346        O  0.80265549  0.16748166  0.75139751    -0.55600
C347        C  0.70303957  0.13209913  0.78148242     0.78200
O348        O  0.76882219  0.16356565  0.73060162    -0.58000
O349        O  0.75167497  0.11033958  0.74980455    -0.56400
O350        O  0.77423991  0.19510539  0.78882034    -0.56400
O351        O  0.71482477  0.11978137  0.78935502    -0.55600
O352        O  0.61718716  0.83965453  0.67434397    -0.56800
C353        C  0.66006133  0.91535768  0.72142534     0.75900
O354        O  0.56955695  0.86020487  0.71665385    -0.57900
C355        C  0.59664114  0.81645054  0.67984024     0.75800
C356        C  0.63158802  0.84433962  0.75158470     0.78200
Cd357      Cd  0.61438563  0.86223483  0.71142213     1.37500
O358        O  0.65949517  0.90414473  0.70204810    -0.56800
O359        O  0.64337656  0.84876623  0.73203959    -0.55600
C360        C  0.57442691  0.87833726  0.70121657     0.78200
O361        O  0.60977835  0.84564680  0.75232285    -0.58000
O362        O  0.63960484  0.90243440  0.73468417    -0.56400
O363        O  0.58555093  0.81509922  0.69924379    -0.56400
O364        O  0.59735848  0.88878662  0.69104760    -0.55600
O365        O  0.92004514  0.22608459  0.54055311    -0.56800
C366        C  0.89101723  0.13557388  0.53164781     0.75900
O367        O  0.97177036  0.19548186  0.56182795    -0.57900
C368        C  0.93132423  0.24050123  0.55863428     0.75800
C369        C  0.88995726  0.17149353  0.59705678     0.78200
Cd370      Cd  0.92347047  0.18627725  0.55621261     1.37500
O371        O  0.89352721  0.15790053  0.52389543    -0.56800
O372        O  0.88181074  0.17446722  0.57721335    -0.55600
C373        C  0.97736518  0.19922366  0.54020672     0.78200
O374        O  0.91337504  0.17334173  0.59802881    -0.58000
O375        O  0.90297024  0.13678827  0.55075887    -0.56400
O376        O  0.93909827  0.23003862  0.57422746    -0.56400
O377        O  0.95847816  0.19689710  0.52679539    -0.55600
O378        O  0.02623752  0.43824756  0.60643585    -0.56800
C379        C  0.08654685  0.52470595  0.61993471     0.75900
O380        O  0.11052864  0.46927619  0.58621693    -0.57900
C381        C  0.02019033  0.42537863  0.58723262     0.75800
C382        C  0.05924043  0.49661106  0.54818773     0.78200
Cd383      Cd  0.07047904  0.47730440  0.59087902     1.37500
O384        O  0.06270976  0.50362941  0.62120656    -0.56800
O385        O  0.04984720  0.49801839  0.56771244    -0.55600
C386        C  0.10786366  0.45922534  0.60657278     0.78200
O387        O  0.07665928  0.48866281  0.54826277    -0.58000
O388        O  0.10281973  0.52384314  0.60536903    -0.67200
O389        O  0.03684616  0.43668767  0.57071345    -0.56400
O390        O  0.08835212  0.45734803  0.61858850    -0.55600
O391        O  0.94986643  0.49608037  0.34256670    -0.56800
C392        C  0.98886036  0.57790351  0.38397044     0.75900
O393        O  0.90411998  0.52575232  0.37868462    -0.57900
C394        C  0.93070424  0.47307682  0.35019001     0.75800
C395        C  0.96476444  0.50751324  0.41644635     0.78200
Cd396      Cd  0.94650700  0.52252099  0.37560228     1.37500
O397        O  0.99002359  0.56617060  0.36545740    -0.56800
O398        O  0.97603193  0.51045636  0.39677852    -0.55600
C399        C  0.90489965  0.53256719  0.35739347     0.78200
O400        O  0.94338050  0.50964094  0.41713425    -0.58000
O401        O  0.96825951  0.56442672  0.39693062    -0.56400
O402        O  0.91986483  0.47327894  0.36940548    -0.56400
O403        O  0.92426241  0.53425071  0.34522671    -0.55600
O404        O  0.12724371  0.84273679  0.46413369    -0.56800
C405        C  0.08156085  0.76073966  0.42868374     0.75900
O406        O  0.04778167  0.81220858  0.42802731    -0.57900
C407        C  0.13121616  0.86586626  0.45700925     0.75800
C408        C  0.12570024  0.82942261  0.39084472     0.78200
Cd409      Cd  0.09397170  0.81634485  0.43249026     1.37500
O410        O  0.09394376  0.77431501  0.44684443    -0.56800
O411        O  0.13411294  0.82655369  0.41057511    -0.55600
C412        C  0.04216534  0.80762973  0.44958949     0.78200
O413        O  0.10247373  0.82800046  0.39015039    -0.58000
O414        O  0.07452201  0.77254045  0.41376158    -0.56400
O415        O  0.11833369  0.86577910  0.43880667    -0.56400
O416        O  0.06029761  0.80759943  0.46257880    -0.55600
O417        O  0.41051056  0.17708523  0.29330025    -0.56800
C418        C  0.37176610  0.09981353  0.25161937     0.75900
O419        O  0.42164168  0.17049628  0.21769214    -0.57900
C420        C  0.42889510  0.20099218  0.28680044     0.75800
C421        C  0.45781374  0.14107787  0.27245152     0.78200
Cd422      Cd  0.41655113  0.15416626  0.25861869     1.37500
O423        O  0.38989676  0.11306997  0.23649040    -0.56800
O424        O  0.43991770  0.14005982  0.28612290    -0.55600
C425        C  0.39935548  0.17098576  0.21819463     0.78200
O426        O  0.45753724  0.14889002  0.25169011    -0.58000
O427        O  0.37406506  0.11161800  0.27099661    -0.56400
O428        O  0.44121703  0.20270131  0.26796843    -0.56400
O429        O  0.38716338  0.16615507  0.23757369    -0.55600
O430        O  0.22755865  0.83328775  0.18652489    -0.56800
C431        C  0.27176481  0.91359339  0.22104237     0.75900
O432        O  0.25277549  0.84501397  0.25893175    -0.57900
C433        C  0.23043772  0.81240504  0.18783485     0.75800
C434        C  0.31564001  0.87290411  0.20082813     0.78200
Cd435      Cd  0.26196914  0.85904675  0.21691265     1.37500
O436        O  0.26145767  0.90064017  0.20217580    -0.56800
O437        O  0.29824983  0.87492726  0.18830898    -0.55600
C438        C  0.22832897  0.84054006  0.25797081     0.78200
O439        O  0.30861635  0.86449103  0.22165916    -0.58000
O440        O  0.27703141  0.90125701  0.23682858    -0.56400
O441        O  0.24773561  0.81327118  0.20248016    -0.56400
O442        O  0.21950956  0.84241723  0.23813072    -0.55600
O443        O  0.28954694  0.15992231  0.01064648    -0.56800
C444        C  0.32615856  0.24182867  0.05014006     0.75900
O445        O  0.24257759  0.19202407  0.04770195    -0.57900
C446        C  0.27068443  0.13655453  0.01789826     0.75800
C447        C  0.30076304  0.16955264  0.08490287     0.78200
Cd448      Cd  0.28349932  0.18556374  0.04360742     1.37500
O449        O  0.32553890  0.22978859  0.03125839    -0.56800
O450        O  0.31405468  0.17607084  0.06597843    -0.55600
C451        C  0.24170682  0.19637865  0.02602082     0.78200
O452        O  0.27778939  0.16872446  0.08477329    -0.58000
O453        O  0.30763885  0.22799175  0.06484314    -0.56400
O454        O  0.25832806  0.13636713  0.03629623    -0.56400
O455        O  0.25895949  0.19465881  0.01335314    -0.55600
O456        O  0.45083632  0.50653731  0.13419810    -0.56800
C457        C  0.40810997  0.42509812  0.09408477     0.75900
O458        O  0.37418805  0.47452331  0.09726663    -0.57900
C459        C  0.45529141  0.52955250  0.12626223     0.75800
C460        C  0.45633559  0.49333138  0.06146990     0.78200
Cd461      Cd  0.42105068  0.48003014  0.10086242     1.37500
O462        O  0.42281389  0.43831956  0.11159259    -0.56800
O463        O  0.46167365  0.48702885  0.08125886    -0.55600
C464        C  0.36838717  0.46749078  0.11854740     0.78200
O465        O  0.43480529  0.49520456  0.05980181    -0.58000
O466        O  0.39867149  0.43684763  0.08140568    -0.56400
O467        O  0.44383340  0.52925237  0.10708232    -0.56400
O468        O  0.38671503  0.46677322  0.13082670    -0.55600
C469        C  0.39020510  0.36201502  0.06631092     0.21400
C470        C  0.38154167  0.34357906  0.04755018    -0.38500
C471        C  0.37053866  0.31580718  0.05346604     0.20400
C472        C  0.36812718  0.30721116  0.07640239     0.23000
C473        C  0.37723483  0.32570781  0.09513316    -0.39000
C474        C  0.38852606  0.35348512  0.08920463     0.21800
N475        N  0.39849943  0.38884306  0.06539726    -0.32300
C476        C  0.40234486  0.39754998  0.08777584    -0.09800
C477        C  0.39673493  0.37620593  0.10320366    -0.28600
N478        N  0.35364415  0.27970044  0.07768317    -0.45200
C479        C  0.34681213  0.27055293  0.05549225    -0.04500
C480        C  0.35736207  0.29248477  0.03978223    -0.21900
H481        H  0.38204646  0.35022831  0.02974615     0.19900
H482        H  0.37445541  0.31881701  0.11306427     0.18700
H483        H  0.39660859  0.37676259  0.12203269     0.15000
H484        H  0.35358573  0.29158416  0.02121916     0.14900
H485        H  0.40034870  0.40035894  0.05046365     0.33000
H486        H  0.34727010  0.26785338  0.09288461     0.35800
C487        C  0.35382973  0.17153764  0.17534537     0.21400
C488        C  0.32869944  0.16775665  0.16702305    -0.38500
C489        C  0.32498844  0.16539349  0.14276606     0.20400
C490        C  0.34482760  0.16657266  0.12806394     0.23000
C491        C  0.36986547  0.17019178  0.13640277    -0.39000
C492        C  0.37362519  0.17269489  0.16061077     0.21800
N493        N  0.36174723  0.17309210  0.19764268    -0.32300
C494        C  0.38657695  0.17486169  0.19720563    -0.09800
C495        C  0.39487924  0.17506183  0.17435407    -0.28600
N496        N  0.33740299  0.16593981  0.10573331    -0.45200
C497        C  0.31286684  0.16479770  0.10602132    -0.04500
C498        C  0.30416067  0.16391693  0.12888320    -0.21900
H499        H  0.31330165  0.16699462  0.17858191     0.19900
H500        H  0.38538497  0.17122044  0.12484206     0.18700
H501        H  0.41300914  0.17494938  0.16864007     0.15000
H502        H  0.28620415  0.16438691  0.13455545     0.14900
H503        H  0.35016858  0.17133888  0.21233796     0.33000
H504        H  0.34922486  0.16801333  0.09112960     0.35800
C505        C  0.32125398  0.02873273  0.25091517     0.21400
C506        C  0.30637780  0.00216553  0.26016573    -0.38500
C507        C  0.29462074  0.98087553  0.24385727     0.20400
C508        C  0.29731176  0.98550109  0.22004466     0.23000
C509        C  0.31240326  0.01214180  0.21076046    -0.39000
C510        C  0.32427947  0.03348364  0.22712484     0.21800
N511        N  0.33647788  0.05214769  0.26281985    -0.32300
C512        C  0.34962074  0.07184648  0.24647784    -0.09800
C513        C  0.34242442  0.06107553  0.22404166    -0.28600
N514        N  0.28695750  0.96160748  0.20842165    -0.45200
C515        C  0.27823276  0.94186106  0.22507734    -0.04500
C516        C  0.28230739  0.95308094  0.24728252    -0.21900
H517        H  0.30521774  0.99825914  0.27872040     0.19900
H518        H  0.31582774  0.01588849  0.19224272     0.18700
H519        H  0.35064512  0.07174108  0.20772122     0.15000
H520        H  0.27901793  0.94249867  0.26378555     0.14900
H521        H  0.33921927  0.05426409  0.28085034     0.33000
H522        H  0.28814902  0.95912885  0.19054211     0.35800
C523        C  0.19935316  0.83525346  0.31436987     0.21400
C524        C  0.19938900  0.83825053  0.33862157    -0.38500
C525        C  0.17552808  0.83611005  0.34803884     0.20400
C526        C  0.15324809  0.83136383  0.33443703     0.23000
C527        C  0.15316981  0.82827569  0.31018201    -0.39000
C528        C  0.17705973  0.83043238  0.30074981     0.21800
N529        N  0.22006653  0.83784064  0.30105160    -0.32300
C530        C  0.21095053  0.83482784  0.27874772    -0.09800
C531        C  0.18415872  0.82998948  0.27793806    -0.28600
N532        N  0.13289648  0.82968598  0.34772893    -0.45200
C533        C  0.14230424  0.83321105  0.36996710    -0.04500
C534        C  0.16880830  0.83735255  0.37078518    -0.21900
H535        H  0.21678425  0.84214180  0.34937333     0.19900
H536        H  0.13589136  0.82469738  0.29940920     0.18700
H537        H  0.17204070  0.82792052  0.26259299     0.15000
H538        H  0.18114924  0.83996872  0.38610710     0.14900
H539        H  0.23962581  0.84273525  0.30668733     0.33000
H540        H  0.11350072  0.82537137  0.34213558     0.35800
C541        C  0.03087781  0.64136687  0.41315768     0.21400
C542        C  0.03807775  0.65970861  0.43185641    -0.38500
C543        C  0.05506489  0.68758571  0.42638564     0.20400
C544        C  0.06391605  0.69639193  0.40387761     0.23000
C545        C  0.05711657  0.67799604  0.38524781    -0.39000
C546        C  0.04028166  0.65008451  0.39075532     0.21800
N547        N  0.01246133  0.61441002  0.41339129    -0.32300
C548        C  0.01003510  0.60573494  0.39108260    -0.09800
C549        C  0.02740989  0.62732261  0.37640709    -0.28600
N550        N  0.07628150  0.72383852  0.40251044    -0.45200
C551        C  0.07548373  0.73265013  0.42422796    -0.04500
C552        C  0.06277152  0.71067917  0.43975777    -0.21900
H553        H  0.02976856  0.65287292  0.44913202     0.19900
H554        H  0.06318820  0.68502501  0.36753647     0.18700
H555        H  0.02879047  0.62687786  0.35764847     0.15000
H556        H  0.05733562  0.71128930  0.45768192     0.14900
H557        H  0.00114376  0.60279155  0.42776674     0.33000
H558        H  0.08320215  0.73577561  0.38737558     0.35800
C559        C  0.00601018  0.49831892  0.45875877     0.21400
C560        C  0.02726896  0.49425040  0.46671261    -0.38500
C561        C  0.03381497  0.49924512  0.49049043     0.20400
C562        C  0.02017788  0.50768311  0.50509645     0.23000
C563        C  0.99881296  0.51154626  0.49718992    -0.39000
C564        C  0.99220933  0.50645599  0.47347728     0.21800
N565        N  0.99686737  0.49626384  0.43678430    -0.32300
C566        C  0.97707736  0.50307498  0.43748580    -0.09800
C567        C  0.97338947  0.50932128  0.46013903    -0.28600
N568        N  0.02919335  0.50975495  0.52707947    -0.45200
C569        C  0.04850032  0.50227997  0.52669876    -0.04500
C570        C  0.05218912  0.49582142  0.50408034    -0.21900
H571        H  0.03788697  0.48764499  0.45523452     0.19900
H572        H  0.98807652  0.51798802  0.50869467     0.18700
H573        H  0.95998729  0.51659166  0.46581942     0.15000
H574        H  0.06512955  0.48791912  0.49860100     0.14900
H575        H  0.00436393  0.49153876  0.42204176     0.33000
H576        H  0.02150219  0.51443488  0.54171244     0.35800
C577        C  0.94738365  0.30595956  0.58022855     0.21400
C578        C  0.95643161  0.32638559  0.59739407    -0.38500
C579        C  0.96859616  0.35350949  0.58922037     0.20400
C580        C  0.97150155  0.35967060  0.56566220     0.23000
C581        C  0.96217959  0.33920706  0.54850528    -0.39000
C582        C  0.94994429  0.31208682  0.55667912     0.21800
N583        N  0.93871457  0.27926285  0.58357728    -0.32300
C584        C  0.93571943  0.26822860  0.56209841    -0.09800
C585        C  0.94212301  0.28796887  0.54478587    -0.28600
N586        N  0.98790612  0.38676515  0.56234266    -0.45200
C587        C  0.99598079  0.39797127  0.58381102    -0.04500
C588        C  0.98372186  0.37797338  0.60111159    -0.21900
H589        H  0.95579757  0.32162693  0.61574889     0.19900
H590        H  0.96590798  0.34418176  0.53016796     0.18700
H591        H  0.94340976  0.28559080  0.52623703     0.15000
H592        H  0.98823422  0.38043722  0.61957994     0.14900
H593        H  0.93660461  0.26946985  0.59956283     0.33000
H594        H  0.99546823  0.39664032  0.54637232     0.35800
C595        C  0.81970169  0.17025715  0.67463723     0.21400
C596        C  0.81871561  0.16679547  0.65037078    -0.38500
C597        C  0.84133699  0.16671179  0.64048447     0.20400
C598        C  0.86320596  0.16967455  0.65374125     0.23000
C599        C  0.86421136  0.17319468  0.67798176    -0.39000
C600        C  0.84168817  0.17344108  0.68784140     0.21800
N601        N  0.80026675  0.16983981  0.68834664    -0.32300
C602        C  0.80993257  0.17269888  0.71045546    -0.09800
C603        C  0.83580007  0.17521163  0.71076988    -0.28600
N604        N  0.88263197  0.16998699  0.64010766    -0.45200
C605        C  0.87325123  0.16755038  0.61795123    -0.04500
C606        C  0.84745078  0.16524299  0.61753333    -0.21900
H607        H  0.80162922  0.16440668  0.63994249     0.19900
H608        H  0.88129559  0.17558638  0.68841410     0.18700
H609        H  0.84793439  0.17648435  0.72588221     0.15000
H610        H  0.83543420  0.16409724  0.60237436     0.14900
H611        H  0.78105424  0.16641059  0.68310635     0.33000
H612        H  0.90170174  0.17311080  0.64544198     0.35800
C613        C  0.70495004  0.97740824  0.75128278     0.21400
C614        C  0.71177932  0.99584087  0.76983237    -0.38500
C615        C  0.72887483  0.02367580  0.76434624     0.20400
C616        C  0.73840565  0.03245511  0.74198081     0.23000
C617        C  0.73206954  0.01392924  0.72349220    -0.39000
C618        C  0.71489438  0.98602082  0.72898470     0.21800
N619        N  0.68560717  0.95072866  0.75133324    -0.32300
C620        C  0.68289952  0.94216873  0.72897108    -0.09800
C621        C  0.70129620  0.96343881  0.71451333    -0.28600
N622        N  0.75033822  0.05990900  0.74044842    -0.45200
C623        C  0.74843278  0.06866240  0.76193048    -0.04500
C624        C  0.73557904  0.04669043  0.77742329    -0.21900
H625        H  0.70275278  0.98914458  0.78690789     0.19900
H626        H  0.73833895  0.02087944  0.70579475     0.18700
H627        H  0.70250866  0.96315590  0.69573116     0.15000
H628        H  0.72925399  0.04718065  0.79506675     0.14900
H629        H  0.67348867  0.93948964  0.76549756     0.33000
H630        H  0.75747016  0.07176514  0.72529360     0.35800
C631        C  0.68069378  0.83721935  0.84189722     0.21400
C632        C  0.65673234  0.83600351  0.83339566    -0.38500
C633        C  0.65455778  0.83688163  0.80908265     0.20400
C634        C  0.67477217  0.83883909  0.79441506     0.23000
C635        C  0.69869789  0.83994515  0.80291866    -0.39000
C636        C  0.70085195  0.83901428  0.82724905     0.21800
N637        N  0.68720887  0.83599773  0.86422689    -0.32300
C638        C  0.71156930  0.83675801  0.86394234    -0.09800
C639        C  0.72082879  0.83874759  0.84113396    -0.28600
N640        N  0.66835186  0.84037059  0.77210093    -0.45200
C641        C  0.64392376  0.83947592  0.77246724    -0.04500
C642        C  0.63457653  0.83716979  0.79526571    -0.21900
H643        H  0.64097204  0.83455446  0.84489153     0.19900
H644        H  0.71447965  0.84144533  0.79142336     0.18700
H645        H  0.73907884  0.83886024  0.83544420     0.15000
H646        H  0.61629870  0.83697015  0.80100732     0.14900
H647        H  0.67522055  0.83367318  0.87878483     0.33000
H648        H  0.68039311  0.84292940  0.75753200     0.35800
C649        C  0.62138456  0.64566396  0.89136197     0.21400
C650        C  0.63412576  0.67186522  0.88106809    -0.38500
C651        C  0.64449952  0.69410799  0.89655393     0.20400
C652        C  0.64198867  0.69053454  0.92048226     0.23000
C653        C  0.62940172  0.66437994  0.93074552    -0.39000
C654        C  0.61940414  0.64220266  0.91530788     0.21800
N655        N  0.61329891  0.62158598  0.88066909    -0.32300
C656        C  0.60680124  0.60289804  0.89798049    -0.09800
C657        C  0.61001801  0.61492049  0.91977631    -0.28600
N658        N  0.65655282  0.71472926  0.93148523    -0.45200
C659        C  0.66906627  0.73376496  0.91451453    -0.04500
C660        C  0.66172346  0.72175876  0.89248374    -0.21900
H661        H  0.63737058  0.67477096  0.86246773     0.19900
H662        H  0.62907395  0.66158541  0.94942865     0.18700
H663        H  0.60796052  0.60542535  0.93665635     0.15000
H664        H  0.66996803  0.73155021  0.87586230     0.14900
H665        H  0.61446482  0.61853854  0.86289421     0.33000
H666        H  0.66002275  0.71771161  0.94939394     0.35800
C667        C  0.53025592  0.49641026  0.98614151     0.21400
C668        C  0.52777189  0.49426430  0.01051431    -0.38500
C669        C  0.50604208  0.49643341  0.01991612     0.20400
C670        C  0.48824721  0.50056852  0.00615288     0.23000
C671        C  0.49070187  0.50263883  0.98184478    -0.39000
C672        C  0.51223121  0.50026381  0.97245677     0.21800
N673        N  0.54969218  0.49607295  0.97291012    -0.32300
C674        C  0.54383138  0.49968454  0.95066782    -0.09800
C675        C  0.52052561  0.50215102  0.94975889    -0.28600
N676        N  0.46887588  0.50118126  0.01919286    -0.45200
C677        C  0.47421887  0.49720471  0.04145519    -0.04500
C678        C  0.49732371  0.49429998  0.04258727    -0.21900
H679        H  0.54167924  0.49111502  0.02135375     0.19900
H680        H  0.47682490  0.50582696  0.97100083     0.18700
H681        H  0.51164200  0.50619725  0.93458407     0.15000
H682        H  0.50597590  0.49017610  0.05787847     0.14900
H683        H  0.56636894  0.49446756  0.97869549     0.33000
H684        H  0.45250963  0.50322292  0.01323602     0.35800
C685        C  0.23035428  0.02334965  0.98169605     0.21400
C686        C  0.23453050  0.03746356  0.00270693    -0.38500
C687        C  0.24608736  0.06597418  0.00084523     0.20400
C688        C  0.25337319  0.07966240  0.97969445     0.23000
C689        C  0.24881467  0.06539118  0.95850728    -0.39000
C690        C  0.23688301  0.03661855  0.96034323     0.21800
N691        N  0.22086173  0.99639272  0.97912220    -0.32300
C692        C  0.22112809  0.99207789  0.95596563    -0.09800
C693        C  0.23069942  0.01667478  0.94355796    -0.28600
N694        N  0.26418779  0.10694466  0.98288686    -0.45200
C695        C  0.26321365  0.11036592  0.00620392    -0.04500
C696        C  0.25206598  0.08526176  0.01786694    -0.21900
H697        H  0.22928668  0.02698427  0.01936408     0.19900
H698        H  0.25432242  0.07590066  0.94187326     0.18700
H699        H  0.23401499  0.01977163  0.92498411     0.15000
H700        H  0.24849986  0.08159470  0.03637883     0.14900
H701        H  0.21523093  0.98184830  0.99245365     0.33000
H702        H  0.27092601  0.12211751  0.97000586     0.35800
C703        C  0.59234658  0.08610331  0.82348106     0.21400
C704        C  0.60932737  0.07714108  0.81415201    -0.38500
C705        C  0.63362862  0.09755116  0.80370340     0.20400
C706        C  0.64039817  0.12477202  0.80237517     0.23000
C707        C  0.62367988  0.13381430  0.81211330    -0.39000
C708        C  0.59954059  0.11346960  0.82277109     0.21800
N709        N  0.56877969  0.07101937  0.83525065    -0.32300
C710        C  0.56125691  0.08906157  0.84240453    -0.09800
C711        C  0.57992168  0.11568274  0.83499156    -0.28600
N712        N  0.66525216  0.14034173  0.79264131    -0.45200
C713        C  0.67461010  0.12299728  0.78820075    -0.04500
C714        C  0.65544285  0.09616389  0.79482635    -0.21900
H715        H  0.60436415  0.05598324  0.81549429     0.19900
H716        H  0.62940488  0.15523810  0.81196488     0.18700
H717        H  0.57953513  0.13426404  0.83860838     0.15000
H718        H  0.65779183  0.07831360  0.79431829     0.14900
H719        H  0.55910940  0.05004963  0.83909017     0.33000
H720        H  0.67596391  0.16168280  0.79063833     0.35800
C721        C  0.37912114  0.97103479  0.91986019     0.21400
C722        C  0.35911866  0.96031977  0.93740956    -0.38500
C723        C  0.33176556  0.94614064  0.92970223     0.20400
C724        C  0.32506705  0.94304106  0.90624901     0.23000
C725        C  0.34502592  0.95333231  0.88874089    -0.39000
C726        C  0.37229756  0.96742151  0.89642790     0.21800
N727        N  0.40600289  0.98897864  0.92261781    -0.32300
C728        C  0.41626599  0.99697748  0.90086327    -0.09800
C729        C  0.39600898  0.98352352  0.88402157    -0.28600
N730        N  0.29806527  0.93262334  0.90331947    -0.45200
C731        C  0.28732480  0.92904368  0.92494807    -0.04500
C732        C  0.30762918  0.93678664  0.94197623    -0.21900
H733        H  0.36443518  0.96440234  0.95566860     0.19900
H734        H  0.33967402  0.95214751  0.87048018     0.18700
H735        H  0.39774432  0.98745236  0.86545846     0.15000
H736        H  0.30546680  0.93800948  0.96056614     0.14900
H737        H  0.41626912  0.99707499  0.93836097     0.33000
H738        H  0.28779774  0.92985041  0.88748795     0.35800
C739        C  0.09281731  0.57879374  0.65650075     0.21400
C740        C  0.08380721  0.59396722  0.66909485    -0.38500
C741        C  0.10452106  0.61871205  0.67877616     0.20400
C742        C  0.13210287  0.62744526  0.67646123     0.23000
C743        C  0.14110638  0.61253816  0.66346372    -0.39000
C744        C  0.12040927  0.58800940  0.65347614     0.21800
N745        N  0.07724536  0.55491267  0.64523317    -0.32300
C746        C  0.09503162  0.54907542  0.63465018    -0.09800
C747        C  0.12214671  0.56931810  0.63929781    -0.28600
N748        N  0.14772553  0.65219908  0.68642299    -0.45200
C749        C  0.13001539  0.65960548  0.69464148    -0.04500
C750        C  0.10288908  0.63924451  0.69019479    -0.21900
H751        H  0.06227004  0.58730518  0.67078515     0.19900
H752        H  0.16266402  0.61979924  0.66090902     0.18700
H753        H  0.14061791  0.57020154  0.63315050     0.15000
H754        H  0.08453524  0.64002406  0.69376259     0.14900
H755        H  0.05584435  0.54355250  0.64440113     0.33000
H756        H  0.16911023  0.66419852  0.68614614     0.35800
C757        C  0.18159232  0.80577452  0.81178942     0.21400
C758        C  0.18230323  0.80606720  0.83625332    -0.38500
C759        C  0.18205621  0.82830284  0.84684451     0.20400
C760        C  0.18093890  0.84858064  0.83405786     0.23000
C761        C  0.18006705  0.84820303  0.80961011    -0.39000
C762        C  0.18058500  0.82612309  0.79902889     0.21800
N763        N  0.18125599  0.78671391  0.79759940    -0.32300
C764        C  0.18004104  0.79498643  0.77562951    -0.09800
C765        C  0.17967160  0.81953840  0.77585286    -0.28600
N766        N  0.18220988  0.86813275  0.84816431    -0.45200
C767        C  0.18439422  0.86041574  0.87010316    -0.04500
C768        C  0.18413850  0.83554245  0.86998506    -0.21900
H769        H  0.18330467  0.79031490  0.84629871     0.19900
H770        H  0.17935450  0.86410727  0.79955305     0.18700
H771        H  0.17779086  0.83047258  0.76106791     0.15000
H772        H  0.18640427  0.82483805  0.88475614     0.14900
H773        H  0.18089159  0.76870351  0.80257206     0.33000
H774        H  0.18266070  0.88616079  0.84311638     0.35800
C775        C  0.75748734  0.55876873  0.83892000     0.21400
C776        C  0.73312677  0.53685246  0.84806722    -0.38500
C777        C  0.71600344  0.54412939  0.85974087     0.20400
C778        C  0.72248389  0.57118497  0.86173028     0.23000
C779        C  0.74715030  0.59313396  0.85305966    -0.39000
C780        C  0.76447126  0.58588082  0.84171476     0.21800
N781        N  0.77595853  0.55714125  0.82545584    -0.32300
C782        C  0.79502631  0.58338602  0.81982807    -0.09800
C783        C  0.78876620  0.60194310  0.82990123    -0.28600
N784        N  0.70137895  0.57248583  0.87093230    -0.45200
C785        C  0.68147779  0.54615549  0.87523694    -0.04500
C786        C  0.68994315  0.52786522  0.86870990    -0.21900
H787        H  0.72740871  0.51563416  0.84547854     0.19900
H788        H  0.75198556  0.61424762  0.85423212     0.18700
H789        H  0.79967337  0.62404381  0.82778302     0.15000
H790        H  0.67779569  0.50565352  0.86865356     0.14900
H791        H  0.77530071  0.53922946  0.81995343     0.33000
H792        H  0.70006589  0.59012757  0.87315593     0.35800
C793        C  0.03823544  0.71281593  0.75013107     0.21400
C794        C  0.01976069  0.70308577  0.76879386    -0.38500
C795        C  0.99193288  0.68978173  0.76270349     0.20400
C796        C  0.98330533  0.68628253  0.73970908     0.23000
C797        C  0.00178853  0.69634254  0.72104855    -0.39000
C798        C  0.02962621  0.70982505  0.72715072     0.21800
N799        N  0.06538988  0.72319979  0.75128954    -0.32300
C800        C  0.07417974  0.72683462  0.72896313    -0.09800
C801        C  0.05256117  0.71913542  0.71333233    -0.28600
N802        N  0.95599004  0.67015440  0.73838012    -0.45200
C803        C  0.94712106  0.66340939  0.76061630    -0.04500
C804        C  0.96886672  0.67555264  0.77637924    -0.21900
H805        H  0.02653760  0.70455231  0.78667506     0.19900
H806        H  0.99496334  0.69269440  0.70308973     0.18700
H807        H  0.05317905  0.71818202  0.69454672     0.15000
H808        H  0.96811970  0.67257356  0.79505277     0.14900
H809        H  0.07702093  0.72610920  0.76635448     0.33000
H810        H  0.94418071  0.66307297  0.72319932     0.35800
C811        C  0.93059830  0.76668612  0.48928679     0.21400
C812        C  0.94280110  0.76592326  0.46821479    -0.38500
C813        C  0.97158524  0.78243455  0.46719689     0.20400
C814        C  0.98696271  0.79813062  0.48592016     0.23000
C815        C  0.97477961  0.79924145  0.50679447    -0.39000
C816        C  0.94606533  0.78302618  0.50768989     0.21800
N817        N  0.90375004  0.75253762  0.49487512    -0.32300
C818        C  0.90210344  0.76017511  0.51689805    -0.09800
C819        C  0.92811300  0.77922154  0.52540184    -0.28600
N820        N  0.01391834  0.81002752  0.48144858    -0.45200
C821        C  0.01592331  0.80224151  0.45961843    -0.04500
C822        C  0.98991739  0.78521469  0.45001577    -0.21900
H823        H  0.93081574  0.75304327  0.45382757     0.19900
H824        H  0.98683953  0.81144144  0.52145584     0.18700
H825        H  0.93320171  0.78892293  0.54233101     0.15000
H826        H  0.98512026  0.77474970  0.43343452     0.14900
H827        H  0.88750763  0.73876373  0.48427378     0.33000
H828        H  0.03005638  0.82195369  0.49289244     0.35800
C829        C  0.84052018  0.67067572  0.64144842     0.21400
C830        C  0.83798623  0.64626082  0.65034143    -0.38500
C831        C  0.83952974  0.64474934  0.67465265     0.20400
C832        C  0.84335852  0.66601208  0.68898800     0.23000
C833        C  0.84570680  0.69040607  0.68009078    -0.39000
C834        C  0.84413878  0.69190280  0.65573566     0.21800
N835        N  0.83943460  0.67689280  0.61901320    -0.32300
C836        C  0.84221099  0.70219511  0.61886051    -0.09800
C837        C  0.84526037  0.71231812  0.64148215    -0.28600
N838        N  0.84537269  0.66001302  0.71135250    -0.45200
C839        C  0.84279208  0.63474940  0.71132788    -0.04500
C840        C  0.83897924  0.62450809  0.68871574    -0.21900
H841        H  0.83522071  0.62972214  0.63911475     0.19900
H842        H  0.84873265  0.70705882  0.69129540     0.18700
H843        H  0.84721852  0.73158085  0.64680204     0.15000
H844        H  0.83726551  0.60541082  0.68321388     0.14900
H845        H  0.83623722  0.66431025  0.60465896     0.33000
H846        H  0.84916964  0.67273889  0.72571457     0.35800
C847        C  0.64952629  0.62807050  0.56224564     0.21400
C848        C  0.67019288  0.63800153  0.54529899    -0.38500
C849        C  0.69678821  0.64696800  0.55356376     0.20400
C850        C  0.70227207  0.64623271  0.57700389     0.23000
C851        C  0.68152633  0.63598934  0.59392997    -0.39000
C852        C  0.65489176  0.62686565  0.58563792     0.21800
N853        N  0.62323026  0.62089659  0.55903935    -0.32300
C854        C  0.61163422  0.61501989  0.58045639    -0.09800
C855        C  0.63065051  0.61818263  0.59755713    -0.28600
N856        N  0.72943639  0.65947457  0.58081662    -0.45200
C857        C  0.74140479  0.66881002  0.55975492    -0.04500
C858        C  0.72169677  0.66097846  0.54220909    -0.21900
H859        H  0.66605922  0.63991384  0.52716397     0.19900
H860        H  0.68601475  0.63641789  0.61232607     0.18700
H861        H  0.62760291  0.61607506  0.61620559     0.15000
H862        H  0.72508183  0.66730253  0.52412491     0.14900
H863        H  0.61394314  0.62098107  0.54326820     0.33000
H864        H  0.73925197  0.66376761  0.59701261     0.35800
C865        C  0.57866863  0.76354001  0.63694410     0.21400
C866        C  0.58042656  0.75095757  0.61636941    -0.38500
C867        C  0.56262802  0.72222021  0.61493568     0.20400
C868        C  0.54476573  0.70739386  0.63277776     0.23000
C869        C  0.54272712  0.71992947  0.65299145    -0.39000
C870        C  0.56025007  0.74839134  0.65433303     0.21800
N871        N  0.59426038  0.79012942  0.64343525    -0.32300
C872        C  0.58546642  0.79162333  0.66506349    -0.09800
C873        C  0.56421411  0.76601921  0.67223442    -0.28600
N874        N  0.53234346  0.68031605  0.62873332    -0.45200
C875        C  0.54197024  0.67747472  0.60807499    -0.04500
C876        C  0.56071415  0.70320393  0.59868349    -0.21900
H877        H  0.59517975  0.76248478  0.60288719     0.19900
H878        H  0.52916287  0.70817570  0.66710913     0.18700
H879        H  0.55353179  0.76082846  0.68871440     0.15000
H880        H  0.57299321  0.70730625  0.58318973     0.14900
H881        H  0.61010299  0.80609119  0.63396038     0.33000
H882        H  0.51914568  0.66456288  0.63998920     0.35800
C883        C  0.51159511  0.49067233  0.47065984     0.21400
C884        C  0.51345740  0.49285090  0.49500253    -0.38500
C885        C  0.51065763  0.51408595  0.50457556     0.20400
C886        C  0.50639424  0.53195950  0.49103155     0.23000
C887        C  0.50442287  0.52972467  0.46663176    -0.39000
C888        C  0.50718519  0.50839348  0.45703010     0.21800
N889        N  0.51261846  0.47160461  0.45746007    -0.32300
C890        C  0.50860824  0.47701891  0.43522385    -0.09800
C891        C  0.50532526  0.49994154  0.43426745    -0.28600
N892        N  0.50565251  0.55111169  0.50440306    -0.45200
C893        C  0.50960424  0.54535364  0.52657688    -0.04500
C894        C  0.51255104  0.52228763  0.52732822    -0.21900
H895        H  0.51689013  0.47903736  0.50572950     0.19900
H896        H  0.50102052  0.54356420  0.45591252     0.18700
H897        H  0.50095609  0.50852227  0.41905865     0.15000
H898        H  0.51679602  0.51345709  0.54243498     0.14900
H899        H  0.51478501  0.45524591  0.46331890     0.33000
H900        H  0.50365406  0.56762963  0.49873417     0.35800
C901        C  0.45257806  0.26917251  0.30671024     0.21400
C902        C  0.46448973  0.29763075  0.30429178    -0.38500
C903        C  0.46710019  0.31204007  0.32476503     0.20400
C904        C  0.45890583  0.29933160  0.34627965     0.23000
C905        C  0.44658851  0.27055734  0.34866990    -0.39000
C906        C  0.44356888  0.25593860  0.32794885     0.21800
N907        N  0.44811391  0.25119536  0.28971716    -0.32300
C908        C  0.43588562  0.22609195  0.29991493    -0.09800
C909        C  0.43243896  0.22807372  0.32379522    -0.28600
N910        N  0.46319811  0.31798794  0.36288777    -0.45200
C911        C  0.47370043  0.34248081  0.35156423    -0.04500
C912        C  0.47639113  0.33944168  0.32786067    -0.21900
H913        H  0.47098888  0.30781969  0.28756831     0.19900
H914        H  0.43962425  0.26030823  0.36531936     0.18700
H915        H  0.42366958  0.21153273  0.33642749     0.15000
H916        H  0.48349095  0.35517337  0.31450874     0.14900
H917        H  0.45313639  0.25574595  0.27216018     0.33000
H918        H  0.45813213  0.31412937  0.38052866     0.35800
C919        C  0.03425608  0.21111914  0.50478956     0.21400
C920        C  0.04722690  0.21073768  0.48416292    -0.38500
C921        C  0.07599374  0.22604796  0.48441523     0.20400
C922        C  0.09084832  0.24092634  0.50364924     0.23000
C923        C  0.07782077  0.24090655  0.52449525    -0.39000
C924        C  0.04891621  0.22527355  0.52435492     0.21800
N925        N  0.00715835  0.19953991  0.50838030    -0.32300
C926        C  0.00424551  0.20594076  0.53048487    -0.09800
C927        C  0.02988200  0.22180474  0.54114675    -0.28600
N928        N  0.11797103  0.25465297  0.49900190    -0.45200
C929        C  0.12031394  0.24816011  0.47674486    -0.04500
C930        C  0.09455470  0.23026975  0.46717431    -0.21900
H931        H  0.03572071  0.19969722  0.46886340     0.19900
H932        H  0.08931270  0.25256558  0.53957147     0.18700
H933        H  0.03405363  0.23080443  0.55833911     0.15000
H934        H  0.09001539  0.22174112  0.44979271     0.14900
H935        H  0.99151248  0.18842834  0.49628973     0.33000
H936        H  0.13390669  0.26747959  0.51030143     0.35800
C937        C  0.37047126  0.38800584  0.40970035     0.21400
C938        C  0.35247527  0.38154114  0.42856369    -0.38500
C939        C  0.32444756  0.36523697  0.42328161     0.20400
C940        C  0.31533766  0.35599437  0.40090417     0.23000
C941        C  0.33328830  0.36264565  0.38205048    -0.39000
C942        C  0.36120961  0.37917329  0.38726769     0.21800
N943        N  0.39791567  0.40075145  0.41057473    -0.32300
C944        C  0.40616435  0.40020072  0.38858895    -0.09800
C945        C  0.38391189  0.38720313  0.37342730    -0.28600
N946        N  0.28820101  0.33869029  0.40069526    -0.45200
C947        C  0.27971050  0.33670132  0.42299975    -0.04500
C948        C  0.30170766  0.35328773  0.43768593    -0.21900
H949        H  0.35982386  0.38780863  0.44618313     0.19900
H950        H  0.32606487  0.35461751  0.36475128     0.18700
H951        H  0.38418037  0.38222559  0.35530093     0.15000
H952        H  0.30141342  0.35488018  0.45643515     0.14900
H953        H  0.41026408  0.40814980  0.42545010     0.33000
H954        H  0.27625718  0.32783938  0.38628507     0.35800
C955        C  0.26784278  0.43761843  0.17364990     0.21400
C956        C  0.29627593  0.44953762  0.17637756    -0.38500
C957        C  0.31100784  0.45238860  0.15604279     0.20400
C958        C  0.29854492  0.44434015  0.13442545     0.23000
C959        C  0.26983697  0.43193034  0.13173894    -0.39000
C960        C  0.25492078  0.42876024  0.15228049     0.21800
N961        N  0.24963841  0.43323763  0.19039435    -0.32300
C962        C  0.22467326  0.42120984  0.17994975    -0.09800
C963        C  0.22702826  0.41785305  0.15608913    -0.28600
N964        N  0.31743822  0.44952916  0.11786560    -0.45200
C965        C  0.34190893  0.46053237  0.12922064    -0.04500
C966        C  0.33860432  0.46251326  0.15302114    -0.21900
H967        H  0.30623212  0.45611604  0.19318583     0.19900
H968        H  0.25988003  0.42525863  0.11494488     0.18700
H969        H  0.21072412  0.40925177  0.14324615     0.15000
H970        H  0.35432812  0.47009811  0.16638940     0.14900
H971        H  0.25397589  0.43822402  0.20798650     0.33000
H972        H  0.31383316  0.44508751  0.10010335     0.35800
C973        C  0.17509262  0.31874375  0.34198439     0.21400
C974        C  0.17671322  0.32081422  0.31764272    -0.38500
C975        C  0.17496165  0.34270052  0.30786296     0.20400
C976        C  0.17177829  0.36120975  0.32119582     0.23000
C977        C  0.17026040  0.35920567  0.34562377    -0.39000
C978        C  0.17210719  0.33730021  0.35544173     0.21800
N979        N  0.17701796  0.30020591  0.35545723    -0.32300
C980        C  0.17551968  0.30712593  0.37770875    -0.09800
C981        C  0.17236304  0.33009742  0.37839308    -0.28600
N982        N  0.16966606  0.37955221  0.30748178    -0.45200
C983        C  0.17142064  0.37247438  0.28528961    -0.04500
C984        C  0.17488390  0.34972782  0.28492486    -0.21900
H985        H  0.17912224  0.30639884  0.30706161     0.19900
H986        H  0.16784823  0.37361718  0.35620522     0.18700
H987        H  0.17139407  0.34068682  0.39366633     0.15000
H988        H  0.17608036  0.33906092  0.26980084     0.14900
H989        H  0.18028297  0.28451394  0.34989081     0.33000
H990        H  0.16621890  0.39517970  0.31282333     0.35800
C991        C  0.02968155  0.31050601  0.24646026     0.21400
C992        C  0.00894194  0.29894439  0.26335137    -0.38500
C993        C  0.98193284  0.28572052  0.25485038     0.20400
C994        C  0.97615182  0.28448329  0.23128050     0.23000
C995        C  0.99688596  0.29579678  0.21436248    -0.39000
C996        C  0.02390072  0.30871139  0.22286017     0.21800
N997        N  0.05674681  0.32645095  0.25022975    -0.32300
C998        C  0.06840237  0.33475747  0.22894805    -0.09800
C999        C  0.04859818  0.32387385  0.21136119    -0.28600
N1000       N  0.94916484  0.27393465  0.22781373    -0.45200
C1001       C  0.93760926  0.26841575  0.24925673    -0.04500
C1002       C  0.95733322  0.27505660  0.26660913    -0.21900
H1003       H  0.01351983  0.30118754  0.28180972     0.19900
H1004       H  0.99232065  0.29563190  0.19600792     0.18700
H1005       H  0.05161152  0.32830746  0.19290227     0.15000
H1006       H  0.95442751  0.27450475  0.28525031     0.14900
H1007       H  0.06659373  0.33248872  0.26640180     0.33000
H1008       H  0.93939289  0.27213834  0.21186992     0.35800
C1009       C  0.91123665  0.41778896  0.30983894     0.21400
C1010       C  0.90860595  0.40490132  0.28823256    -0.38500
C1011       C  0.89361734  0.37592673  0.28847859     0.20400
C1012       C  0.88248542  0.36121556  0.30880136     0.23000
C1013       C  0.88486424  0.37400742  0.33020474    -0.39000
C1014       C  0.89951424  0.40275078  0.32989933     0.21800
N1015       N  0.92454824  0.44494078  0.31446988    -0.32300
C1016       C  0.92094165  0.44701859  0.33756670    -0.09800
C1017       C  0.90537531  0.42112017  0.34770343    -0.28600
N1018       N  0.87065516  0.33416663  0.30500375    -0.45200
C1019       C  0.87390926  0.33121227  0.28208079    -0.04500
C1020       C  0.88801170  0.35685117  0.27101222    -0.21900
H1021       H  0.91777407  0.41654123  0.27249227     0.19900
H1022       H  0.87615068  0.36236733  0.34603920     0.18700
H1023       H  0.89913014  0.41638097  0.36571294     0.15000
H1024       H  0.89457827  0.36101276  0.25305046     0.14900
H1025       H  0.93498192  0.46104857  0.30261226     0.33000
H1026       H  0.86153404  0.31855796  0.31748066     0.35800
C1027       C  0.84326762  0.19242120  0.15950669     0.21400
C1028       C  0.84986599  0.19356980  0.13579575    -0.38500
C1029       C  0.84936308  0.17014533  0.12692655     0.20400
C1030       C  0.84293549  0.14742798  0.14064483     0.23000
C1031       C  0.83626276  0.14625776  0.16424635    -0.39000
C1032       C  0.83669309  0.16956084  0.17306688     0.21800
N1033       N  0.84344089  0.21234227  0.17245753    -0.32300
C1034       C  0.83711395  0.20204038  0.19442378    -0.09800
C1035       C  0.83260799  0.17537745  0.19536593    -0.28600
N1036       N  0.84281023  0.12741915  0.12798341    -0.45200
C1037       C  0.84884790  0.13723187  0.10591374    -0.04500
C1038       C  0.85322998  0.16390291  0.10460005    -0.21900
H1039       H  0.85496063  0.21133103  0.12504472     0.19900
H1040       H  0.83114846  0.12849115  0.17499620     0.18700
H1041       H  0.82844360  0.16254044  0.21063976     0.15000
H1042       H  0.85715847  0.17641003  0.08914159     0.14900
H1043       H  0.84901567  0.23217621  0.16699887     0.33000
H1044       H  0.83730440  0.10769612  0.13371355     0.35800
C1045       C  0.79328491  0.96028371  0.01693893     0.21400
C1046       C  0.77726169  0.93136458  0.01881151    -0.38500
C1047       C  0.77510687  0.91651333  0.99842455     0.20400
C1048       C  0.78817186  0.92967440  0.97801701     0.23000
C1049       C  0.80369792  0.95830278  0.97607595    -0.39000
C1050       C  0.80563783  0.97297638  0.99618910     0.21800
N1051       N  0.79762726  0.97930074  0.03319425    -0.32300
C1052       C  0.81240226  0.00404840  0.02236390    -0.09800
C1053       C  0.81775083  0.00080207  0.99936341    -0.28600
N1054       N  0.78327401  0.91149503  0.96111972    -0.45200
C1055       C  0.76667306  0.88631423  0.97041409    -0.04500
C1056       C  0.76095774  0.88848835  0.99375356    -0.21900
H1057       H  0.76696859  0.92123360  0.03478958     0.19900
H1058       H  0.81327854  0.96846634  0.95988985     0.18700
H1059       H  0.82814247  0.01672641  0.98637105     0.15000
H1060       H  0.74837891  0.87192490  0.00564616     0.14900
H1061       H  0.78972229  0.97567242  0.05005747     0.33000
H1062       H  0.79059167  0.91601663  0.94404854     0.35800
C1063       C  0.42991588  0.91403510  0.16703870     0.21400
C1064       C  0.41573517  0.90947065  0.18818858    -0.38500
C1065       C  0.38700287  0.89687951  0.18639256     0.20400
C1066       C  0.37360036  0.88973674  0.16509904     0.23000
C1067       C  0.38766021  0.89387823  0.14406239    -0.39000
C1068       C  0.41623400  0.90616556  0.14589675     0.21800
N1069       N  0.45720066  0.92558215  0.16392363    -0.32300
C1070       C  0.46075230  0.92461521  0.14066513    -0.09800
C1071       C  0.43565609  0.91264758  0.12891280    -0.28600
N1072       N  0.34659415  0.87966650  0.16780748    -0.45200
C1073       C  0.34251140  0.88008867  0.19099568    -0.04500
C1074       C  0.36721329  0.89043870  0.20325475    -0.21900
H1075       H  0.42629739  0.91548511  0.20478458     0.19900
H1076       H  0.37712436  0.88815751  0.12743597     0.18700
H1077       H  0.43209696  0.90892796  0.11040277     0.15000
H1078       H  0.37042814  0.89401308  0.22179740     0.14900
H1079       H  0.47235889  0.93293961  0.17683633     0.33000
H1080       H  0.33183815  0.87338344  0.15459496     0.35800
C1081       C  0.52558769  0.99752405  0.00957065     0.21400
C1082       C  0.53091256  0.00241434  0.98572730    -0.38500
C1083       C  0.52749129  0.02338843  0.97623469     0.20400
C1084       C  0.51904288  0.03824351  0.98929948     0.23000
C1085       C  0.51393258  0.03350993  0.01327986    -0.39000
C1086       C  0.51774786  0.01271499  0.02288527     0.21800
N1087       N  0.52788926  0.97903507  0.02274489    -0.32300
C1088       C  0.52191556  0.98276330  0.04471104    -0.09800
C1089       C  0.51549616  0.00357413  0.04551403    -0.28600
N1090       N  0.51542465  0.05565370  0.97562478    -0.45200
C1091       C  0.52168977  0.05171516  0.95377158    -0.04500
C1092       C  0.52954116  0.03198832  0.95358913    -0.21900
H1093       H  0.53707540  0.99060775  0.97527077     0.19900
H1094       H  0.50736465  0.04503610  0.02365841     0.18700
H1095       H  0.51057059  0.01142674  0.06071953     0.15000
H1096       H  0.53419429  0.02360072  0.93858400     0.14900
H1097       H  0.53427762  0.96556828  0.01732198     0.33000
H1098       H  0.50767848  0.06815224  0.98059340     0.35800
C1099       C  0.65772369  0.03276319  0.07394311     0.21400
C1100       C  0.67552817  0.04226785  0.05477496    -0.38500
C1101       C  0.70346777  0.05382113  0.05996567     0.20400
C1102       C  0.71276581  0.05566514  0.08261785     0.23000
C1103       C  0.69500735  0.04655894  0.10182172    -0.39000
C1104       C  0.66704973  0.03499787  0.09663061     0.21800
N1105       N  0.63030372  0.01761488  0.07322199    -0.32300
C1106       C  0.62194221  0.01003316  0.09548119    -0.09800
C1107       C  0.64426130  0.02084816  0.11075500    -0.28600
N1108       N  0.73953612  0.06398319  0.08281297    -0.45200
C1109       C  0.74744006  0.06741078  0.06022598    -0.04500
C1110       C  0.72562091  0.06172532  0.04535131    -0.21900
H1111       H  0.66799715  0.03931876  0.03703215     0.19900
H1112       H  0.70229122  0.04691623  0.11936965     0.18700
H1113       H  0.64403399  0.01663506  0.12918980     0.15000
H1114       H  0.72543962  0.06117101  0.02651489     0.14900
H1115       H  0.61804157  0.01122102  0.05825912     0.33000
H1116       H  0.75143654  0.06578081  0.09742575     0.35800
C1117       C  0.83064904  0.78129900  0.95280915     0.21400
C1118       C  0.85777526  0.78742688  0.95650135    -0.38500
C1119       C  0.86082993  0.76778931  0.96923203     0.20400
C1120       C  0.83854639  0.74360360  0.97722530     0.23000
C1121       C  0.81150283  0.73771515  0.97389848    -0.39000
C1122       C  0.80848235  0.75756122  0.96156345     0.21800
N1123       N  0.82227230  0.79727950  0.94242801    -0.32300
C1124       C  0.79463538  0.78382730  0.94501171    -0.09800
C1125       C  0.78534146  0.75900290  0.95685606    -0.28600
N1126       N  0.84685272  0.72902472  0.98988896    -0.45200
C1127       C  0.87457531  0.74433866  0.99048446    -0.04500
C1128       C  0.88409797  0.76864825  0.97781501    -0.21900
H1129       H  0.87523485  0.80650763  0.95060705     0.19900
H1130       H  0.79412585  0.71943867  0.98106336     0.18700
H1131       H  0.76448977  0.74431652  0.96188539     0.15000
H1132       H  0.90510274  0.78527999  0.97611402     0.14900
H1133       H  0.83466005  0.81664016  0.93496744     0.33000
H1134       H  0.83442983  0.71077587  0.99897138     0.35800
C1135       C  0.09357181  0.84235747  0.99138262     0.21400
C1136       C  0.07880394  0.83138696  0.01214846    -0.38500
C1137       C  0.05001755  0.81685238  0.00997228     0.20400
C1138       C  0.03707846  0.81327237  0.98865142     0.23000
C1139       C  0.05177028  0.82473461  0.96803305    -0.39000
C1140       C  0.08042660  0.83946980  0.97027254     0.21800
N1141       N  0.12102319  0.85623731  0.98857207    -0.32300
C1142       C  0.12527033  0.86250911  0.96556324    -0.09800
C1143       C  0.10043881  0.85252126  0.95365621    -0.28600
N1144       N  0.00982787  0.79666935  0.99076934    -0.45200
C1145       C  0.00514053  0.78978294  0.01362988    -0.04500
C1146       C  0.02970148  0.80225933  0.02627166    -0.21900
H1147       H  0.08896963  0.83348846  0.02868549     0.19900
H1148       H  0.04163312  0.82185790  0.95135903     0.18700
H1149       H  0.09745837  0.85435414  0.93523587     0.15000
H1150       H  0.03246657  0.79958177  0.04456722     0.14900
H1151       H  0.13593508  0.86141657  0.00151176     0.33000
H1152       H  0.99531613  0.78974073  0.97733671     0.35800
C1153       C  0.10427931  0.47642327  0.18557477     0.21400
C1154       C  0.08299456  0.47784335  0.17412783    -0.38500
C1155       C  0.08876513  0.50424832  0.16769096     0.20400
C1156       C  0.11410631  0.52737175  0.17179723     0.23000
C1157       C  0.13529097  0.52598052  0.18353704    -0.39000
C1158       C  0.12928308  0.49960805  0.19050653     0.21800
N1159       N  0.10435238  0.45365586  0.19229000    -0.32300
C1160       C  0.12937266  0.46224334  0.20191251    -0.09800
C1161       C  0.14550967  0.49086255  0.20131609    -0.28600
N1162       N  0.11533329  0.54963548  0.16196292    -0.45200
C1163       C  0.09047806  0.54074810  0.15188373    -0.04500
C1164       C  0.07323503  0.51257047  0.15525217    -0.21900
H1165       H  0.06357855  0.45964054  0.17005616     0.19900
H1166       H  0.15519539  0.54402649  0.18653172     0.18700
H1167       H  0.16664490  0.50341206  0.20686519     0.15000
H1168       H  0.05289023  0.49963882  0.14808429     0.14900
H1169       H  0.08849268  0.43336653  0.19000634     0.33000
H1170       H  0.13236926  0.56949676  0.16137644     0.35800
C1171       C  0.98178156  0.61925319  0.08358393     0.21400
C1172       C  0.96623652  0.63066849  0.09110119    -0.38500
C1173       C  0.95553112  0.63982447  0.07345358     0.20400
C1174       C  0.95977884  0.63767334  0.05002543     0.23000
C1175       C  0.97561051  0.62651633  0.04251092    -0.39000
C1176       C  0.98647096  0.61749622  0.06019260     0.21800
N1177       N  0.99596798  0.61114665  0.09699136    -0.32300
C1178       C  0.01011114  0.60459434  0.08203356    -0.09800
C1179       C  0.00464654  0.60816127  0.05894263    -0.28600
N1180       N  0.94996803  0.65061331  0.03687316    -0.45200
C1181       C  0.94009320  0.66161312  0.05212881    -0.04500
C1182       C  0.94284054  0.65498376  0.07503132    -0.21900
H1183       H  0.96374664  0.63341048  0.10937389     0.19900
H1184       H  0.98019463  0.62607072  0.02431004     0.18700
H1185       H  0.01381400  0.60558818  0.04340046     0.15000
H1186       H  0.93840389  0.66238379  0.09079488     0.14900
H1187       H  0.99723111  0.61160560  0.11515235     0.33000
H1188       H  0.95224569  0.65400172  0.01891621     0.35800
C1189       C  0.18009817  0.75620815  0.15423475     0.21400
C1190       C  0.15419692  0.73921052  0.14420195    -0.38500
C1191       C  0.14973005  0.71426441  0.13511384     0.20400
C1192       C  0.16970039  0.70698106  0.13559088     0.23000
C1193       C  0.19541063  0.72372057  0.14611319    -0.39000
C1194       C  0.19972556  0.74849558  0.15553590     0.21800
N1195       N  0.18899144  0.78047178  0.16479688    -0.32300
C1196       C  0.21420928  0.78798696  0.17332562    -0.09800
C1197       C  0.22164074  0.76858164  0.16793492    -0.28600
N1198       N  0.16002354  0.68181761  0.12645450    -0.45200
C1199       C  0.13353096  0.67278711  0.12065662    -0.04500
C1200       C  0.12636039  0.69242884  0.12581544    -0.21900
H1201       H  0.13845279  0.74472048  0.14397913     0.19900
H1202       H  0.21068681  0.71762157  0.14733623     0.18700
H1203       H  0.24032633  0.76891005  0.17280141     0.15000
H1204       H  0.10642815  0.69053429  0.12383643     0.14900
H1205       H  0.17815366  0.79075395  0.16690047     0.33000
H1206       H  0.17024183  0.67079386  0.12553175     0.35800
C1207       C  0.56408611  0.85225862  0.13165214     0.21400
C1208       C  0.57820230  0.83789184  0.12851532    -0.38500
C1209       C  0.58108256  0.82495859  0.14854138     0.20400
C1210       C  0.57031546  0.82603099  0.16981223     0.23000
C1211       C  0.55648420  0.84042421  0.17295951    -0.39000
C1212       C  0.55396308  0.85354650  0.15318100     0.21800
N1213       N  0.56017930  0.86791420  0.11600309    -0.32300
C1214       C  0.54796157  0.87947727  0.12794390    -0.09800
C1215       C  0.54370129  0.87085958  0.15107988    -0.28600
N1216       N  0.57585190  0.81254127  0.18622345    -0.45200
C1217       C  0.59057576  0.80292269  0.17562933    -0.04500
C1218       C  0.59436805  0.81024976  0.15204279    -0.21900
H1219       H  0.58685248  0.83738429  0.11191047     0.19900
H1220       H  0.54882589  0.84188040  0.18978468     0.18700
H1221       H  0.53541107  0.87748975  0.16483296     0.15000
H1222       H  0.60517774  0.80536426  0.13924516     0.14900
H1223       H  0.56688751  0.87181481  0.09874134     0.33000
H1224       H  0.57022421  0.81029805  0.20372806     0.35800
C1225       C  0.53032899  0.64198605  0.16352100     0.21400
C1226       C  0.51734120  0.62867439  0.14277717    -0.38500
C1227       C  0.50051897  0.60009121  0.14420846     0.20400
C1228       C  0.49713823  0.58562710  0.16465828     0.23000
C1229       C  0.50994542  0.59905482  0.18560813    -0.39000
C1230       C  0.52655316  0.62789642  0.18426278     0.21800
N1231       N  0.54769669  0.66897996  0.16640250    -0.32300
C1232       C  0.55491730  0.67250344  0.18920190    -0.09800
C1233       C  0.54207649  0.64731773  0.20103523    -0.28600
N1234       N  0.48063225  0.55842188  0.16105062    -0.45200
C1235       C  0.47330562  0.55579875  0.13821551    -0.04500
C1236       C  0.48521409  0.58134906  0.12724442    -0.21900
H1237       H  0.52022632  0.63979744  0.12662789     0.19900
H1238       H  0.50727068  0.58789867  0.20169731     0.18700
H1239       H  0.54438995  0.64364738  0.21919942     0.15000
H1240       H  0.48325738  0.58559124  0.10914658     0.14900
H1241       H  0.55435750  0.68419477  0.15353336     0.33000
H1242       H  0.47460673  0.54268819  0.17331549     0.35800
C1243       C  0.86285007  0.54665640  0.31988246     0.21400
C1244       C  0.85251411  0.54947882  0.29843237    -0.38500
C1245       C  0.83599241  0.56135607  0.29925944     0.20400
C1246       C  0.83046689  0.57022384  0.31982195     0.23000
C1247       C  0.84053251  0.56701232  0.34141447    -0.39000
C1248       C  0.85680355  0.55469372  0.34064471     0.21800
N1249       N  0.87995549  0.53705678  0.32349028    -0.32300
C1250       C  0.88474053  0.53862572  0.34674458    -0.09800
C1251       C  0.87046127  0.54931258  0.35813108    -0.28600
N1252       N  0.81469529  0.58142638  0.31568205    -0.45200
C1253       C  0.80987736  0.57920460  0.29237203    -0.04500
C1254       C  0.82275558  0.56671996  0.28162481    -0.21900
H1255       H  0.85717744  0.54307332  0.28222821     0.19900
H1256       H  0.83621077  0.57379395  0.35757372     0.18700
H1257       H  0.87108996  0.55380078  0.37648690     0.15000
H1258       H  0.82248974  0.56222557  0.26330193     0.14900
H1259       H  0.88836714  0.53036148  0.31080826     0.33000
H1260       H  0.80721330  0.58954238  0.32796613     0.35800
C1261       C  0.83759455  0.65964810  0.16827529     0.21400
C1262       C  0.86146318  0.68269001  0.15979839    -0.38500
C1263       C  0.86225108  0.68710631  0.13569064     0.20400
C1264       C  0.84093032  0.66975219  0.12110874     0.23000
C1265       C  0.81706792  0.64654031  0.12957689    -0.39000
C1266       C  0.81622682  0.64218446  0.15376372     0.21800
N1267       N  0.83125221  0.65216397  0.19063022    -0.32300
C1268       C  0.80560134  0.62984544  0.19053073    -0.09800
C1269       C  0.79560514  0.62275675  0.16779315    -0.28600
N1270       N  0.84720340  0.67786391  0.09881426    -0.45200
C1271       C  0.87275497  0.70045613  0.09915627    -0.04500
C1272       C  0.88271164  0.70695428  0.12191147    -0.21900
H1273       H  0.87813021  0.69632437  0.17119400     0.19900
H1274       H  0.80032600  0.63300394  0.11819836     0.18700
H1275       H  0.77538203  0.60675257  0.16239213     0.15000
H1276       H  0.90285187  0.72296288  0.12748104     0.14900
H1277       H  0.84315970  0.66245955  0.20518669     0.33000
H1278       H  0.83538152  0.66781930  0.08414769     0.35800
C1279       C  0.70648845  0.72385623  0.24057883     0.21400
C1280       C  0.71577749  0.71292029  0.25796966    -0.38500
C1281       C  0.72841969  0.69865792  0.25009566     0.20400
C1282       C  0.73130873  0.69537712  0.22661778     0.23000
C1283       C  0.72238967  0.70668541  0.20920216    -0.39000
C1284       C  0.70994746  0.72117754  0.21708999     0.21800
N1285       N  0.69044461  0.73467083  0.24358319    -0.32300
C1286       C  0.68360362  0.73895817  0.22195610    -0.09800
C1287       C  0.69577269  0.73128938  0.20488572    -0.28600
N1288       N  0.74051598  0.67792593  0.22361479    -0.45200
C1289       C  0.74357581  0.67008147  0.24526662    -0.04500
C1290       C  0.73662124  0.68288168  0.26230405    -0.21900
H1291       H  0.71195488  0.71402754  0.27625537     0.19900
H1292       H  0.72358147  0.70306571  0.19087976     0.18700
H1293       H  0.69221995  0.73034216  0.18628322     0.15000
H1294       H  0.73540414  0.67925959  0.28090166     0.14900
H1295       H  0.68288847  0.73706489  0.25939008     0.33000
H1296       H  0.74307518  0.67056434  0.20775385     0.35800
C1297       C  0.63385662  0.51771216  0.28605263     0.21400
C1298       C  0.60512311  0.50609382  0.28511820    -0.38500
C1299       C  0.59087474  0.49349703  0.30583290     0.20400
C1300       C  0.60438638  0.49261531  0.32572380     0.23000
C1301       C  0.63285859  0.50436657  0.32671910    -0.39000
C1302       C  0.64694923  0.51690167  0.30623774     0.21800
N1303       N  0.65243914  0.53196557  0.26929092    -0.32300
C1304       C  0.67734353  0.54044940  0.27923101    -0.09800
C1305       C  0.67461347  0.53134759  0.30215673    -0.28600
N1306       N  0.58666465  0.47933610  0.34298869    -0.45200
C1307       C  0.56147139  0.47159475  0.33433609    -0.04500
C1308       C  0.56314668  0.48014850  0.31116020    -0.21900
H1309       H  0.59469877  0.50697646  0.26954929     0.19900
H1310       H  0.64334485  0.50400243  0.34244053     0.18700
H1311       H  0.69085711  0.53581444  0.31454757     0.15000
H1312       H  0.54640229  0.47661039  0.29969872     0.14900
H1313       H  0.64855145  0.53694902  0.25269504     0.33000
H1314       H  0.59144992  0.47558377  0.35970668     0.35800
C1315       C  0.18280508  0.42069768  0.64255142     0.21400
C1316       C  0.17314890  0.42476032  0.62101672    -0.38500
C1317       C  0.15520134  0.43519932  0.62221356     0.20400
C1318       C  0.14729596  0.44063581  0.64331099     0.23000
C1319       C  0.15720759  0.43699751  0.66467440    -0.39000
C1320       C  0.17534680  0.42705376  0.66345146     0.21800
N1321       N  0.20034288  0.41147263  0.64632640    -0.32300
C1322       C  0.20432493  0.41249714  0.66974267    -0.09800
C1323       C  0.18912462  0.42217542  0.68093208    -0.28600
N1324       N  0.12973640  0.44972886  0.64007777    -0.45200
C1325       C  0.12648493  0.45063079  0.61675483    -0.04500
C1326       C  0.14218093  0.44181299  0.60489711    -0.21900
H1327       H  0.17926241  0.42027798  0.60458631     0.19900
H1328       H  0.15132262  0.44174365  0.68110272     0.18700
H1329       H  0.18846182  0.42544174  0.69940909     0.15000
H1330       H  0.14348124  0.43999982  0.58626836     0.14900
H1331       H  0.20970039  0.40568517  0.63375126     0.33000
H1332       H  0.12057487  0.45520835  0.65305011     0.35800
C1333       C  0.42360961  0.51995092  0.65214782     0.21400
C1334       C  0.41088569  0.50834860  0.67354437    -0.38500
C1335       C  0.38225141  0.49083113  0.67273616     0.20400
C1336       C  0.36758261  0.48505264  0.65209321     0.23000
C1337       C  0.38018164  0.49695407  0.63081906    -0.39000
C1338       C  0.40867648  0.51470335  0.63170090     0.21800
N1339       N  0.45057533  0.53680919  0.64810043    -0.32300
C1340       C  0.45270513  0.54257155  0.62497648    -0.09800
C1341       C  0.42698510  0.52924806  0.61421928    -0.28600
N1342       N  0.34099375  0.46659163  0.65562092    -0.45200
C1343       C  0.33848788  0.46077769  0.67871413    -0.04500
C1344       C  0.36375129  0.47561973  0.69006820    -0.21900
H1345       H  0.42245825  0.51240355  0.68958069     0.19900
H1346       H  0.36867248  0.49245240  0.61469978     0.18700
H1347       H  0.42236420  0.52990092  0.59598378     0.15000
H1348       H  0.36817286  0.47446705  0.70826690     0.14900
H1349       H  0.46651500  0.54416540  0.66033218     0.33000
H1350       H  0.32549496  0.45808297  0.64299418     0.35800
C1351       C  0.47380225  0.16253202  0.84573607     0.21400
C1352       C  0.48357968  0.18684198  0.83267275    -0.38500
C1353       C  0.46343926  0.19164086  0.82310270     0.20400
C1354       C  0.43568133  0.17374209  0.82647699     0.23000
C1355       C  0.42589946  0.14907251  0.83901881    -0.39000
C1356       C  0.44602636  0.14413205  0.84838320     0.21800
N1357       N  0.48872065  0.15298812  0.85617528    -0.32300
C1358       C  0.47032457  0.12809528  0.86513019    -0.09800
C1359       C  0.44349541  0.12177943  0.86050192    -0.28600
N1360       N  0.42074211  0.18311427  0.81575905    -0.45200
C1361       C  0.43908427  0.20691755  0.80512416    -0.04500
C1362       C  0.46591686  0.21285043  0.80926008    -0.21900
H1363       H  0.50526900  0.20089101  0.83001408     0.19900
H1364       H  0.40420163  0.13466214  0.84115896     0.18700
H1365       H  0.42471405  0.10303243  0.86486775     0.15000
H1366       H  0.48470128  0.23032535  0.80294028     0.14900
H1367       H  0.51005984  0.16214378  0.85615732     0.33000
H1368       H  0.39937869  0.17359390  0.81524332     0.35800
C1369       C  0.33212183  0.29032021  0.72597900     0.21400
C1370       C  0.32228746  0.29971947  0.70769373    -0.38500
C1371       C  0.30610264  0.31084331  0.71432581     0.20400
C1372       C  0.30049736  0.31266984  0.73745610     0.23000
C1373       C  0.30992815  0.30285208  0.75566721    -0.39000
C1374       C  0.32586767  0.29152085  0.74903734     0.21800
N1375       N  0.35017553  0.28162732  0.72448290    -0.32300
C1376       C  0.35539652  0.27720705  0.74670233    -0.09800
C1377       C  0.34030718  0.28275897  0.76251294    -0.28600
N1378       N  0.28779920  0.32715110  0.73948351    -0.45200
C1379       C  0.28506554  0.33448717  0.71755394    -0.04500
C1380       C  0.29589291  0.32438663  0.70128281    -0.21900
H1381       H  0.32791926  0.29959490  0.68974312     0.19900
H1382       H  0.30624805  0.30511287  0.77376063     0.18700
H1383       H  0.34128366  0.28233873  0.78132454     0.15000
H1384       H  0.29821577  0.32851974  0.68275835     0.14900
H1385       H  0.35930645  0.27993210  0.70932625     0.33000
H1386       H  0.28264220  0.33301379  0.75498194     0.35800
C1387       C  0.50660647  0.38074159  0.79420659     0.21400
C1388       C  0.51774581  0.40948372  0.79399632    -0.38500
C1389       C  0.53129013  0.42342789  0.81457205     0.20400
C1390       C  0.53374947  0.40966125  0.83360900     0.23000
C1391       C  0.52259963  0.38115287  0.83387577    -0.39000
C1392       C  0.50880552  0.36728478  0.81360068     0.21800
N1393       N  0.49085680  0.36239891  0.77775611    -0.32300
C1394       C  0.48265074  0.33722518  0.78705964    -0.09800
C1395       C  0.49351166  0.33954091  0.80933104    -0.28600
N1396       N  0.54671960  0.42700283  0.85122518    -0.45200
C1397       C  0.55254581  0.45216454  0.84371283    -0.04500
C1398       C  0.54325284  0.45088022  0.82083491    -0.21900
H1399       H  0.51533439  0.42006167  0.77920496     0.19900
H1400       H  0.52380314  0.37041562  0.84911058     0.18700
H1401       H  0.48951649  0.32303374  0.82129078     0.15000
H1402       H  0.54488131  0.46761690  0.81032527     0.14900
H1403       H  0.48453039  0.36663107  0.76188478     0.33000
H1404       H  0.55101329  0.42190620  0.86760716     0.35800
C1405       C  0.51658577  0.88395323  0.68392915     0.21400
C1406       C  0.48936623  0.87394605  0.67662546    -0.38500
C1407       C  0.48446003  0.89263038  0.66428862     0.20400
C1408       C  0.50497066  0.91945450  0.66002782     0.23000
C1409       C  0.53222950  0.92935335  0.66706566    -0.39000
C1410       C  0.53724322  0.91050077  0.67893202     0.21800
N1411       N  0.52699853  0.86957061  0.69399638    -0.32300
C1412       C  0.55453453  0.88687341  0.69485349    -0.09800
C1413       C  0.56166419  0.91259895  0.68570770    -0.28600
N1414       N  0.49541233  0.93264478  0.64689042    -0.45200
C1415       C  0.46877954  0.91395598  0.64230118    -0.04500
C1416       C  0.46119877  0.88874930  0.65285705    -0.21900
H1417       H  0.47342550  0.85281401  0.67945019     0.19900
H1418       H  0.54856193  0.94986722  0.66271859     0.18700
H1419       H  0.58210604  0.93003061  0.68324857     0.15000
H1420       H  0.44161705  0.86985732  0.65158040     0.14900
H1421       H  0.51628884  0.84875424  0.69848662     0.33000
H1422       H  0.50671056  0.95263112  0.64031242     0.35800
C1423       C  0.30042500  0.83345037  0.62529880     0.21400
C1424       C  0.28229051  0.80671401  0.63341885    -0.38500
C1425       C  0.25841604  0.80288232  0.64430925     0.20400
C1426       C  0.25289413  0.82398534  0.64668361     0.23000
C1427       C  0.27132092  0.85080936  0.63910429    -0.39000
C1428       C  0.29525623  0.85468892  0.62843394     0.21800
N1429       N  0.32497650  0.84272751  0.61511988    -0.32300
C1430       C  0.33564243  0.87013603  0.61219431    -0.09800
C1431       C  0.31772826  0.87832102  0.62032350    -0.28600
N1432       N  0.22939076  0.81537854  0.65836898    -0.45200
C1433       C  0.22017347  0.78878552  0.66398441    -0.04500
C1434       C  0.23768617  0.78021772  0.65549107    -0.21900
H1435       H  0.28671529  0.79026793  0.63182968     0.19900
H1436       H  0.26756295  0.86756977  0.64176146     0.18700
H1437       H  0.32107676  0.89895727  0.62083262     0.15000
H1438       H  0.23607202  0.76044429  0.65804080     0.14900
H1439       H  0.33444790  0.83142020  0.61143744     0.33000
H1440       H  0.22104952  0.82731516  0.66349185     0.35800
C1441       C  0.24815466  0.15892635  0.48449691     0.21400
C1442       C  0.24087041  0.16708905  0.46369084    -0.38500
C1443       C  0.22898663  0.18361668  0.46630211     0.20400
C1444       C  0.22489908  0.19141428  0.48800376     0.23000
C1445       C  0.23167315  0.18288039  0.50870234    -0.39000
C1446       C  0.24333423  0.16632584  0.50609102     0.21800
N1447       N  0.26024391  0.14369393  0.48689497    -0.32300
C1448       C  0.26270338  0.14114694  0.51019073    -0.09800
C1449       C  0.25228941  0.15491109  0.52265811    -0.28600
N1450       N  0.21541158  0.20880637  0.48597021    -0.45200
C1451       C  0.21326035  0.21223212  0.46283499    -0.04500
C1452       C  0.22120837  0.19654944  0.44991101    -0.21900
H1453       H  0.24467668  0.16146628  0.44674620     0.19900
H1454       H  0.22856502  0.18912935  0.52563715     0.18700
H1455       H  0.25135995  0.15631553  0.54138256     0.15000
H1456       H  0.22269078  0.19601384  0.43116845     0.14900
H1457       H  0.26586222  0.13503932  0.47358674     0.33000
H1458       H  0.21153798  0.21856547  0.49955540     0.35800
C1459       C  0.37828390  0.05100158  0.54385714     0.21400
C1460       C  0.38693639  0.03322985  0.53568646    -0.38500
C1461       C  0.39682326  0.02235109  0.55271185     0.20400
C1462       C  0.39824194  0.02882725  0.57609022     0.23000
C1463       C  0.38968618  0.04658884  0.58422840    -0.39000
C1464       C  0.37962379  0.05726287  0.56728412     0.21800
N1465       N  0.36418375  0.06055065  0.53190694    -0.32300
C1466       C  0.35611450  0.07243456  0.54800230    -0.09800
C1467       C  0.36569129  0.07106345  0.57010280    -0.28600
N1468       N  0.40550822  0.01357967  0.58906466    -0.45200
C1469       C  0.40834668  0.99696553  0.57388587    -0.04500
C1470       C  0.40339441  0.00204554  0.55104872    -0.21900
H1471       H  0.38452383  0.02695544  0.51764645     0.19900
H1472       H  0.38922399  0.05041904  0.60261321     0.18700
H1473       H  0.36055782  0.07677436  0.58644156     0.15000
H1474       H  0.40296205  0.99110817  0.53549899     0.14900
H1475       H  0.35791189  0.05658658  0.51451219     0.33000
H1476       H  0.40668792  0.01322247  0.60721260     0.35800
C1477       C  0.20059323  0.96637676  0.51434490     0.21400
C1478       C  0.18819627  0.93759632  0.51611486    -0.38500
C1479       C  0.17411666  0.92260746  0.49611067     0.20400
C1480       C  0.17240573  0.93540045  0.47605359     0.23000
C1481       C  0.18495830  0.96402166  0.47421199    -0.39000
C1482       C  0.19913111  0.97890647  0.49402962     0.21800
N1483       N  0.21626660  0.98542377  0.53035870    -0.32300
C1484       C  0.22510234  0.01012503  0.51986363    -0.09800
C1485       C  0.21472874  0.00679769  0.49729007    -0.28600
N1486       N  0.15748311  0.91683906  0.45966509    -0.45200
C1487       C  0.14958523  0.89189519  0.46914736    -0.04500
C1488       C  0.15973461  0.89460728  0.49185355    -0.21900
H1489       H  0.18960605  0.92763894  0.53179390     0.19900
H1490       H  0.18400024  0.97401499  0.45837760     0.18700
H1491       H  0.21903798  0.02272459  0.48458852     0.15000
H1492       H  0.15640334  0.87831350  0.50380500     0.14900
H1493       H  0.22184512  0.98187900  0.54680985     0.33000
H1494       H  0.15268859  0.92090059  0.44304680     0.35800
C1495       C  0.35349870  0.16853145  0.62952803     0.21400
C1496       C  0.37743524  0.19106502  0.63856733    -0.38500
C1497       C  0.37815294  0.19431651  0.66279745     0.20400
C1498       C  0.35660784  0.17647879  0.67691295     0.23000
C1499       C  0.33257759  0.15399538  0.66785719    -0.39000
C1500       C  0.33188887  0.15070728  0.64360416     0.21800
N1501       N  0.34816728  0.16064260  0.60718796    -0.32300
C1502       C  0.32301300  0.13760687  0.60693503    -0.09800
C1503       C  0.31211402  0.13077172  0.62933806    -0.28600
N1504       N  0.36223962  0.18419453  0.69930038    -0.45200
C1505       C  0.38753764  0.20711100  0.69948909    -0.04500
C1506       C  0.39811458  0.21409343  0.67701176    -0.21900
H1507       H  0.39432010  0.20497608  0.62753731     0.19900
H1508       H  0.31573076  0.14002581  0.67889363     0.18700
H1509       H  0.29271551  0.11325486  0.63453362     0.15000
H1510       H  0.41745927  0.23162205  0.67173319     0.14900
H1511       H  0.36114676  0.17007569  0.59298325     0.33000
H1512       H  0.34937078  0.17478077  0.71355128     0.35800
C1513       C  0.88364374  0.51464541  0.82486815     0.21400
C1514       C  0.88542774  0.50304238  0.84601414    -0.38500
C1515       C  0.89844122  0.48755719  0.84505084     0.20400
C1516       C  0.90925152  0.48415420  0.82465491     0.23000
C1517       C  0.90711665  0.49549361  0.80337940    -0.39000
C1518       C  0.89371562  0.51073643  0.80425515     0.21800
N1519       N  0.87374616  0.53156248  0.82156569    -0.32300
C1520       C  0.87720143  0.53840081  0.79866359    -0.09800
C1521       C  0.88935720  0.52557528  0.78716585    -0.28600
N1522       N  0.92160978  0.46943707  0.82866205    -0.45200
C1523       C  0.91829480  0.46320394  0.85170615    -0.04500
C1524       C  0.90383729  0.47404770  0.86244695    -0.21900
H1525       H  0.87765299  0.50623453  0.86213475     0.19900
H1526       H  0.91565791  0.49301867  0.78741056     0.18700
H1527       H  0.89567834  0.52811929  0.76914646     0.15000
H1528       H  0.89840789  0.47260309  0.88064865     0.14900
H1529       H  0.86583152  0.53873603  0.83431059     0.33000
H1530       H  0.93154882  0.46385723  0.81648594     0.35800
C1531       C  0.84775507  0.30002970  0.85766012     0.21400
C1532       C  0.82505112  0.28571294  0.84279649    -0.38500
C1533       C  0.81804740  0.25873397  0.83727800     0.20400
C1534       C  0.83250262  0.24681503  0.84591071     0.23000
C1535       C  0.85534227  0.26122560  0.86071280    -0.39000
C1536       C  0.86238325  0.28826570  0.86623690     0.21800
N1537       N  0.85982777  0.32659760  0.86385128    -0.32300
C1538       C  0.88228708  0.33187328  0.87648566    -0.09800
C1539       C  0.88467427  0.30851994  0.87828091    -0.28600
N1540       N  0.82292693  0.22165838  0.83666815    -0.45200
C1541       C  0.80248129  0.21770823  0.82180937    -0.04500
C1542       C  0.79872586  0.24031616  0.82191295    -0.21900
H1543       H  0.81423779  0.29523473  0.83538320     0.19900
H1544       H  0.86734410  0.25238324  0.86680533     0.18700
H1545       H  0.90142157  0.30708268  0.88598467     0.15000
H1546       H  0.78460859  0.24339987  0.81130798     0.14900
H1547       H  0.85415644  0.34076639  0.85856517     0.33000
H1548       H  0.83073121  0.20860389  0.83938335     0.35800
C1549       C  0.99624833  0.47714621  0.98648716     0.21400
C1550       C  0.00007040  0.47680903  0.01062448    -0.38500
C1551       C  0.02194860  0.50092771  0.02004244     0.20400
C1552       C  0.03880422  0.52363986  0.00648256     0.23000
C1553       C  0.03497399  0.52396062  0.98234150    -0.39000
C1554       C  0.01308626  0.49985275  0.97292359     0.21800
N1555       N  0.97711523  0.45671791  0.97330064    -0.32300
C1556       C  0.98191396  0.46646720  0.95116593    -0.09800
C1557       C  0.00414154  0.49330947  0.95025294    -0.28600
N1558       N  0.05691775  0.54461173  0.01982432    -0.45200
C1559       C  0.05131986  0.53528454  0.04205557    -0.04500
C1560       C  0.02980468  0.50805199  0.04285158    -0.21900
H1561       H  0.98674429  0.45922666  0.02133400     0.19900
H1562       H  0.04787652  0.54178559  0.97171241     0.18700
H1563       H  0.01310175  0.50598863  0.93495147     0.15000
H1564       H  0.01994362  0.49579306  0.05817465     0.14900
H1565       H  0.96233181  0.43707941  0.97888635     0.33000
H1566       H  0.07085180  0.56459280  0.01430309     0.35800
C1567       C  0.19575861  0.22034037  0.00991978     0.21400
C1568       C  0.18018371  0.23331096  0.01247105    -0.38500
C1569       C  0.16869924  0.23699120  0.99182978     0.20400
C1570       C  0.17224018  0.22805093  0.97046390     0.23000
C1571       C  0.18809010  0.21559870  0.96787027    -0.39000
C1572       C  0.19972147  0.21222106  0.98832901     0.21800
N1573       N  0.20926399  0.21477337  0.02658574    -0.32300
C1574       C  0.22212177  0.20338350  0.01533406    -0.09800
C1575       C  0.21663064  0.20156793  0.99149686    -0.28600
N1576       N  0.15879650  0.23310211  0.95360347    -0.45200
C1577       C  0.14682404  0.24579129  0.96402000    -0.04500
C1578       C  0.15260985  0.24874175  0.98791747    -0.21900
H1579       H  0.17729208  0.24009559  0.02923037     0.19900
H1580       H  0.19119838  0.20904620  0.95107675     0.18700
H1581       H  0.22445265  0.19393156  0.97816096     0.15000
H1582       H  0.14553614  0.25769579  0.00071382     0.14900
H1583       H  0.21043987  0.21928893  0.04431965     0.33000
H1584       H  0.15791189  0.22830591  0.93596891     0.35800
C1585       C  0.17762010  0.32995872  0.84044282     0.21400
C1586       C  0.19980948  0.35428233  0.83149070    -0.38500
C1587       C  0.20322121  0.35507801  0.80726415     0.20400
C1588       C  0.18584241  0.33321047  0.79318826     0.23000
C1589       C  0.16375197  0.30889467  0.80213297    -0.39000
C1590       C  0.16026823  0.30814637  0.82630452     0.21800
N1591       N  0.16924689  0.32463362  0.86265298    -0.32300
C1592       C  0.14630373  0.29937298  0.86268304    -0.09800
C1593       C  0.14011831  0.28831232  0.84032126    -0.28600
N1594       N  0.19332537  0.33890473  0.77083103    -0.45200
C1595       C  0.21566093  0.36454506  0.77051559    -0.04500
C1596       C  0.22253084  0.37540807  0.79295069    -0.21900
H1597       H  0.21320651  0.37142098  0.84254652     0.19900
H1598       H  0.15006996  0.29194690  0.79102706     0.18700
H1599       H  0.12266666  0.26895172  0.83491820     0.15000
H1600       H  0.23955997  0.39517534  0.79811231     0.14900
H1601       H  0.17804426  0.33783124  0.87682423     0.33000
H1602       H  0.18404933  0.32588089  0.75663687     0.35800
C1603       C  0.03877793  0.38260924  0.88780616     0.21400
C1604       C  0.04663511  0.36468019  0.87871482    -0.38500
C1605       C  0.05788369  0.35423073  0.89474449     0.20400
C1606       C  0.06158939  0.36137666  0.91806157     0.23000
C1607       C  0.05365915  0.37926749  0.92720541    -0.39000
C1608       C  0.04198985  0.38940825  0.91121368     0.21800
N1609       N  0.02372940  0.39172267  0.87693808    -0.32300
C1610       C  0.01663612  0.40367942  0.89368770    -0.09800
C1611       C  0.02811601  0.40312280  0.91514556    -0.28600
N1612       N  0.07103485  0.34714183  0.92990391    -0.45200
C1613       C  0.07289603  0.33058219  0.91396799    -0.04500
C1614       C  0.06488223  0.33444996  0.89192919    -0.21900
H1615       H  0.04278572  0.35807169  0.86074364     0.19900
H1616       H  0.05499191  0.38369985  0.94563234     0.18700
H1617       H  0.02423380  0.40917874  0.93187461     0.15000
H1618       H  0.06358626  0.32359321  0.87607261     0.14900
H1619       H  0.01619171  0.38732747  0.85990476     0.33000
H1620       H  0.07478163  0.34773986  0.94778900     0.35800
C1621       C  0.97354134  0.18270546  0.95697442     0.21400
C1622       C  0.94487136  0.17130132  0.95638783    -0.38500
C1623       C  0.93077426  0.15738232  0.97674178     0.20400
C1624       C  0.94433267  0.15507310  0.99601317     0.23000
C1625       C  0.97281242  0.16673014  0.99671728    -0.39000
C1626       C  0.98677919  0.18058446  0.97655665     0.21800
N1627       N  0.99193321  0.19782681  0.94040231    -0.32300
C1628       C  0.01687334  0.20552672  0.94984844    -0.09800
C1629       C  0.01440424  0.19515826  0.97229201    -0.28600
N1630       N  0.92663484  0.14066128  0.01300516    -0.45200
C1631       C  0.90147349  0.13371146  0.00474682    -0.04500
C1632       C  0.90312549  0.14386691  0.98217215    -0.21900
H1633       H  0.93437399  0.17324801  0.94131659     0.19900
H1634       H  0.98337931  0.16529011  0.01196781     0.18700
H1635       H  0.03078069  0.19882568  0.98426641     0.15000
H1636       H  0.88640045  0.14133895  0.97115891     0.14900
H1637       H  0.98791963  0.20384910  0.92430093     0.33000
H1638       H  0.93141066  0.13580293  0.02929038     0.35800
C1639       C  0.52455186  0.10672086  0.32729218     0.21400
C1640       C  0.51862558  0.12796626  0.32621573    -0.38500
C1641       C  0.50366311  0.12796251  0.30667737     0.20400
C1642       C  0.49521757  0.10835670  0.28935619     0.23000
C1643       C  0.50110857  0.08692983  0.29047752    -0.39000
C1644       C  0.51616414  0.08692940  0.31013565     0.21800
N1645       N  0.53838200  0.10229880  0.34420313    -0.32300
C1646       C  0.53907233  0.07959254  0.33787146    -0.09800
C1647       C  0.52532802  0.06930004  0.31671847    -0.28600
N1648       N  0.47955266  0.11194260  0.27351187    -0.45200
C1649       C  0.47790062  0.13380311  0.28105659    -0.04500
C1650       C  0.49269421  0.14426052  0.30162111    -0.21900
H1651       H  0.52476109  0.14312118  0.33986721     0.19900
H1652       H  0.49412998  0.07120292  0.27724809     0.18700
H1653       H  0.52275055  0.05160554  0.30730410     0.15000
H1654       H  0.49370507  0.16047374  0.31229053     0.14900
H1655       H  0.54718437  0.11428330  0.35904502     0.33000
H1656       H  0.46898668  0.09913302  0.25950402     0.35800
C1657       C  0.75124366  0.17435424  0.32439397     0.21400
C1658       C  0.73914841  0.16108828  0.34562215    -0.38500
C1659       C  0.71020994  0.14545845  0.34582412     0.20400
C1660       C  0.69478049  0.14311921  0.32623637     0.23000
C1661       C  0.70677131  0.15668836  0.30529038    -0.39000
C1662       C  0.73547655  0.17241603  0.30517511     0.21800
N1663       N  0.77819762  0.18973263  0.31928092    -0.32300
C1664       C  0.77943800  0.19783381  0.29675036    -0.09800
C1665       C  0.75316977  0.18748788  0.28748352    -0.28600
N1666       N  0.66802842  0.12559345  0.33007156    -0.45200
C1667       C  0.66599474  0.11669396  0.35233145    -0.04500
C1668       C  0.69189900  0.12886449  0.36292640    -0.21900
H1669       H  0.75135065  0.16240607  0.36069365     0.19900
H1670       H  0.69460312  0.15468943  0.28999806     0.18700
H1671       H  0.74775001  0.19030612  0.26998970     0.15000
H1672       H  0.69679628  0.12493519  0.38024854     0.14900
H1673       H  0.79471509  0.19455361  0.33043525     0.33000
H1674       H  0.65206905  0.11948186  0.31802835     0.35800
C1675       C  0.48034128  0.96181062  0.49464565     0.21400
C1676       C  0.48016656  0.96381961  0.47027597    -0.38500
C1677       C  0.50294271  0.98694845  0.46049809     0.20400
C1678       C  0.52415316  0.00666618  0.47393620     0.23000
C1679       C  0.52435320  0.00462119  0.49824241    -0.39000
C1680       C  0.50175214  0.98143449  0.50797193     0.21800
N1681       N  0.46045338  0.94274368  0.50832711    -0.32300
C1682       C  0.46938707  0.95046588  0.53047307    -0.09800
C1683       C  0.49514088  0.97429439  0.53087269    -0.28600
N1684       N  0.54377773  0.02622153  0.46046080    -0.45200
C1685       C  0.53514060  0.01875983  0.43824397    -0.04500
C1686       C  0.50969889  0.99446633  0.43757733    -0.21900
H1687       H  0.46353159  0.94856983  0.45971678     0.19900
H1688       H  0.54085435  0.02000421  0.50882651     0.18700
H1689       H  0.50659253  0.98597057  0.54596710     0.15000
H1690       H  0.49828734  0.98317350  0.42233270     0.14900
H1691       H  0.44138874  0.92655332  0.50299956     0.33000
H1692       H  0.56242631  0.04288017  0.46598757     0.35800
C1693       C  0.76969313  0.84509894  0.50432322     0.21400
C1694       C  0.77144002  0.83381656  0.52585554    -0.38500
C1695       C  0.78711998  0.82075352  0.52589373     0.20400
C1696       C  0.79973777  0.81907970  0.50591980     0.23000
C1697       C  0.79819853  0.83046080  0.48467303    -0.39000
C1698       C  0.78283590  0.84351062  0.48468746     0.21800
N1699       N  0.75602068  0.85837099  0.49931287    -0.32300
C1700       C  0.76087355  0.86531660  0.47640190    -0.09800
C1701       C  0.77750636  0.85639168  0.46682043    -0.28600
N1702       N  0.81182230  0.80426842  0.50971430    -0.45200
C1703       C  0.80719776  0.79627746  0.53228252    -0.04500
C1704       C  0.79201384  0.80636906  0.54317393    -0.21900
H1705       H  0.76109167  0.83478957  0.54127689     0.19900
H1706       H  0.80798363  0.82890596  0.46910087     0.18700
H1707       H  0.78485324  0.85910917  0.44909602     0.15000
H1708       H  0.78419446  0.80230529  0.56077880     0.14900
H1709       H  0.74457568  0.86284537  0.51077756     0.33000
H1710       H  0.82184765  0.79901952  0.49736010     0.35800
C1711       C  0.64706627  0.94076415  0.39984098     0.21400
C1712       C  0.63808332  0.94982260  0.38076054    -0.38500
C1713       C  0.62055096  0.95976241  0.38597511     0.20400
C1714       C  0.61275207  0.96068696  0.40859746     0.23000
C1715       C  0.62128257  0.95105894  0.42764485    -0.39000
C1716       C  0.63873620  0.94100144  0.42240479     0.21800
N1717       N  0.66665998  0.93412693  0.39973066    -0.32300
C1718       C  0.67088063  0.93002004  0.42227460    -0.09800
C1719       C  0.65351347  0.93362524  0.43702019    -0.28600
N1720       N  0.60033513  0.97551840  0.40951756    -0.45200
C1721       C  0.60026250  0.98418000  0.38745427    -0.04500
C1722       C  0.61214291  0.97425622  0.37212469    -0.21900
H1723       H  0.64576001  0.95087113  0.36334633     0.19900
H1724       H  0.61626350  0.95306741  0.44539832     0.18700
H1725       H  0.65341184  0.93325186  0.45586220     0.15000
H1726       H  0.61718962  0.97988851  0.35402147     0.14900
H1727       H  0.67758133  0.93378502  0.38523050     0.33000
H1728       H  0.59452910  0.98153753  0.42458205     0.35800
C1729       C  0.85364645  0.08027089  0.49157388     0.21400
C1730       C  0.84132282  0.06771141  0.47029360    -0.38500
C1731       C  0.82716826  0.03882376  0.47018001     0.20400
C1732       C  0.82516231  0.02372553  0.48992122     0.23000
C1733       C  0.83784690  0.03624999  0.51105750    -0.39000
C1734       C  0.85225856  0.06507174  0.51106529     0.21800
N1735       N  0.86743827  0.10730392  0.49643795    -0.32300
C1736       C  0.87511827  0.10934027  0.51909999    -0.09800
C1737       C  0.86617948  0.08342246  0.52877349    -0.28600
N1738       N  0.80878905  0.99673669  0.48593623    -0.45200
C1739       C  0.80049949  0.99442996  0.46343673    -0.04500
C1740       C  0.81175365  0.02025553  0.45289483    -0.21900
H1741       H  0.84222959  0.07955447  0.45508150     0.19900
H1742       H  0.83612869  0.02439958  0.52650590     0.18700
H1743       H  0.86905623  0.07865168  0.54648276     0.15000
H1744       H  0.80781207  0.02488374  0.43547650     0.14900
H1745       H  0.87144204  0.12341522  0.48503137     0.33000
H1746       H  0.80292856  0.98081177  0.49800493     0.35800
C1747       C  0.65330527  0.81445363  0.31360186     0.21400
C1748       C  0.65192662  0.81506115  0.33798921    -0.38500
C1749       C  0.67494717  0.83660303  0.34913584     0.20400
C1750       C  0.69761609  0.85613592  0.33697640     0.23000
C1751       C  0.69894721  0.85559281  0.31259001    -0.39000
C1752       C  0.67595457  0.83403281  0.30144948     0.21800
N1753       N  0.63470044  0.79541071  0.29901164    -0.32300
C1754       C  0.64566511  0.80289592  0.27741699    -0.09800
C1755       C  0.67127062  0.82697846  0.27826716    -0.28600
N1756       N  0.71660300  0.87471129  0.35161501    -0.45200
C1757       C  0.70591177  0.86697086  0.37327040    -0.04500
C1758       C  0.67999560  0.84326158  0.37238699    -0.21900
H1759       H  0.63431951  0.79977263  0.34760367     0.19900
H1760       H  0.71667119  0.87072054  0.30299353     0.18700
H1761       H  0.68514097  0.83727568  0.26393161     0.15000
H1762       H  0.66632367  0.83277563  0.38679544     0.14900
H1763       H  0.61619464  0.77791613  0.30354435     0.33000
H1764       H  0.73532614  0.89196370  0.34710943     0.35800
loop_ 
_geom_bond_atom_site_label_1 
_geom_bond_atom_site_label_2 
_geom_bond_distance 
_geom_bond_site_symmetry_2 
_ccdc_geom_bond_type 
O1            C4   1.273       .  A
O1           Cd6   2.500       .  S
C2           O11   1.264       .  A
C2            O7   1.275       .  A
C2         C1718   1.466       .  S
O3            C9   1.273       .  A
O3           Cd6   2.513       .  S
C4           O12   1.268       .  A
C4         C1700   1.475       .  S
C5           O10   1.275       .  A
C5            O8   1.268       .  A
C5         C1757   1.478       .  S
Cd6          O13   2.429       .  S
Cd6          O12   2.414       .  S
Cd6          O11   2.379       .  S
Cd6           O7   2.498       .  S
Cd6          O10   2.496       .  S
Cd6           O8   2.423       .  S
C9           O13   1.265       .  A
C9         C1739   1.475       .  S
O14          C17   1.274       .  A
O14         Cd19   2.485       .  S
C15          O24   1.263       .  A
C15          O20   1.274       .  A
C15        C1721   1.467   1_545  S
O16          C22   1.273       .  A
O16         Cd19   2.525       .  S
C17          O25   1.269       .  A
C17        C1646   1.476       .  S
C18          O23   1.275       .  A
C18          O21   1.267       .  A
C18        C1685   1.471       .  S
Cd19         O26   2.429       .  S
Cd19         O25   2.431       .  S
Cd19         O24   2.391       .  S
Cd19         O20   2.506       .  S
Cd19         O23   2.478       .  S
Cd19         O21   2.411       .  S
C22          O26   1.265       .  A
C22        C1667   1.479       .  S
O27          C30   1.275       .  A
O27         Cd32   2.508       .  S
C28          O37   1.269       .  A
C28          O33   1.274       .  A
C28        C1577   1.479       .  S
O29          C35   1.272       .  A
O29         Cd32   2.501       .  S
C30          O38   1.264       .  A
C30        C1613   1.471       .  S
C31          O36   1.275       .  A
C31          O34   1.267       .  A
C31        C1592   1.472       .  S
Cd32         O39   2.393       .  S
Cd32         O38   2.396       .  S
Cd32         O37   2.437       .  S
Cd32         O33   2.500       .  S
Cd32         O36   2.483       .  S
Cd32         O34   2.413       .  S
C35          O39   1.265       .  A
C35        C1628   1.467       .  S
O40          C43   1.272       .  A
O40         Cd45   2.504       .  S
C41          O50   1.261       .  A
C41          O46   1.273       .  A
C41        C1610   1.469   1_655  S
O42          C48   1.273       .  A
O42         Cd45   2.469       .  S
C43          O51   1.265       .  A
C43        C1523   1.475       .  S
C44          O49   1.270       .  A
C44          O47   1.263       .  A
C44        C1538   1.469       .  S
Cd45         O52   2.424       .  S
Cd45         O51   2.432       .  S
Cd45         O50   2.399       .  S
Cd45         O46   2.511       .  S
Cd45         O49   2.500       .  S
Cd45         O47   2.439       .  S
C48          O52   1.268       .  A
C48        C1556   1.471       .  S
O53          C56   1.274       .  A
O53         Cd58   2.523       .  S
C54          O63   1.267       .  A
C54          O59   1.273       .  A
C54        C1448   1.477       .  S
O55          C61   1.272       .  A
O55         Cd58   2.518       .  S
C56          O64   1.263       .  A
C56        C1466   1.470       .  S
C57          O62   1.275       .  A
C57          O60   1.268       .  A
C57        C1502   1.473       .  S
Cd58         O65   2.414       .  S
Cd58         O64   2.386       .  S
Cd58         O63   2.432       .  S
Cd58         O59   2.504       .  S
Cd58         O62   2.481       .  S
Cd58         O60   2.419       .  S
C61          O65   1.264       .  A
C61        C1484   1.474       .  S
O66          C69   1.274       .  A
O66         Cd71   2.498       .  S
C67          O76   1.266       .  A
C67          O72   1.270       .  A
C67        C1415   1.476       .  S
O68          C74   1.272       .  A
O68         Cd71   2.497       .  S
C69          O77   1.264       .  A
C69        C1469   1.473       .  S
C70          O75   1.273       .  A
C70          O73   1.263       .  A
C70        C1682   1.468       .  S
Cd71         O78   2.425       .  S
Cd71         O77   2.419       .  S
Cd71         O76   2.465       .  S
Cd71         O72   2.490       .  S
Cd71         O75   2.499       .  S
Cd71         O73   2.381       .  S
C74          O78   1.265       .  A
C74        C1430   1.472       .  S
O79          C82   1.273       .  A
O79         Cd84   2.497       .  S
C80          O89   1.264       .  A
C80          O85   1.275       .  A
C80        C1376   1.471       .  S
O81          C87   1.273       .  A
O81         Cd84   2.516       .  S
C82          O90   1.268       .  A
C82        C1361   1.479       .  S
C83          O88   1.276       .  A
C83          O86   1.267       .  A
C83        C1505   1.475       .  S
Cd84         O91   2.433       .  S
Cd84         O90   2.451       .  S
Cd84         O89   2.410       .  S
Cd84         O85   2.496       .  S
Cd84         O88   2.483       .  S
Cd84         O86   2.423       .  S
C87          O91   1.267       .  A
C87        C1394   1.476       .  S
O92          C95   1.273       .  A
O92         Cd97   2.499       .  S
C93         O102   1.263       .  A
C93          O98   1.274       .  A
C93        C1379   1.469       .  S
O94         C100   1.273       .  A
O94         Cd97   2.500       .  S
C95         O103   1.268       .  A
C95        C1322   1.477       .  S
C96         O101   1.276       .  A
C96          O99   1.268       .  A
C96        C1595   1.471       .  S
Cd97        O104   2.417       .  S
Cd97        O103   2.435       .  S
Cd97        O102   2.405       .  S
Cd97         O98   2.503       .  S
Cd97        O101   2.485       .  S
Cd97         O99   2.395       .  S
C100        O104   1.264       .  A
C100       C1343   1.471       .  S
O105        C108   1.273       .  A
O105       Cd110   2.506       .  S
C106        O115   1.267       .  A
C106        O111   1.272       .  A
C106       C1253   1.477       .  S
O107        C113   1.272       .  A
O107       Cd110   2.528       .  S
C108        O116   1.261       .  A
C108       C1289   1.468       .  S
C109        O114   1.276       .  A
C109        O112   1.268       .  A
C109       C1268   1.474       .  S
Cd110       O117   2.406       .  S
Cd110       O116   2.403       .  S
Cd110       O115   2.435       .  S
Cd110       O111   2.507       .  S
Cd110       O114   2.484       .  S
Cd110       O112   2.413       .  S
C113        O117   1.263       .  A
C113       C1304   1.472       .  S
O118        C121   1.273       .  A
O118       Cd123   2.498       .  S
C119        O128   1.268       .  A
C119        O124   1.272       .  A
C119       C1217   1.474       .  S
O120        C126   1.272       .  A
O120       Cd123   2.520       .  S
C121        O129   1.263       .  A
C121       C1286   1.464       .  S
C122        O127   1.275       .  A
C122        O125   1.267       .  A
C122       C1754   1.477       .  S
Cd123       O130   2.429       .  S
Cd123       O129   2.383       .  S
Cd123       O128   2.420       .  S
Cd123       O124   2.497       .  S
Cd123       O127   2.499       .  S
Cd123       O125   2.422       .  S
C126        O130   1.264       .  A
C126       C1232   1.477       .  S
O131        C134   1.271       .  A
O131       Cd136   2.489       .  S
C132        O141   1.265       .  A
C132        O137   1.274       .  A
C132       C1178   1.467       .  S
O133        C139   1.272       .  A
O133       Cd136   2.490       .  S
C134        O142   1.265       .  A
C134       C1163   1.472       .  S
C135        O140   1.274       .  A
C135        O138   1.265       .  A
C135       C1559   1.469       .  S
Cd136       O143   2.433       .  S
Cd136       O142   2.438       .  S
Cd136       O141   2.407       .  S
Cd136       O137   2.476       .  S
Cd136       O140   2.482       .  S
Cd136       O138   2.407       .  S
C139        O143   1.266       .  A
C139       C1199   1.471       .  S
O144        C147   1.271       .  A
O144       Cd149   2.465       .  S
C145        O154   1.262       .  A
C145        O150   1.272       .  A
C145       C1181   1.465       .  S
O146        C152   1.273       .  A
O146       Cd149   2.516       .  S
C147        O155   1.268       .  A
C147       C1127   1.466   1_554  S
C148        O153   1.274       .  A
C148        O151   1.265       .  A
C148       C1271   1.476       .  S
Cd149       O156   2.442       .  S
Cd149       O155   2.429       .  S
Cd149       O154   2.391       .  S
Cd149       O150   2.501       .  S
Cd149       O153   2.490       .  S
Cd149       O151   2.437       .  S
C152        O156   1.265       .  A
C152       C1145   1.477   1_655  S
O157        C160   1.274       .  A
O157       Cd162   2.504       .  S
C158        O167   1.262       .  A
C158        O163   1.275       .  A
C158       C1106   1.469   1_565  S
O159        C165   1.272       .  A
O159       Cd162   2.514       .  S
C160        O168   1.268       .  A
C160       C1070   1.478       .  S
C161        O166   1.275       .  A
C161        O164   1.268       .  A
C161       C1088   1.469       .  S
Cd162       O169   2.412       .  S
Cd162       O168   2.428       .  S
Cd162       O167   2.381       .  S
Cd162       O163   2.522       .  S
Cd162       O166   2.466       .  S
Cd162       O164   2.414       .  S
C165        O169   1.265       .  A
C165       C1214   1.473       .  S
O170        C173   1.274       .  A
O170       Cd175   2.479       .  S
C171        O180   1.262       .  A
C171        O176   1.275       .  A
C171       C1109   1.467       .  S
O172        C178   1.273       .  A
O172       Cd175   2.524       .  S
C173        O181   1.269       .  A
C173       C1631   1.472       .  S
C174        O179   1.275       .  A
C174        O177   1.267       .  A
C174       C1037   1.475       .  S
Cd175       O182   2.412       .  S
Cd175       O181   2.414       .  S
Cd175       O180   2.373       .  S
Cd175       O176   2.510       .  S
Cd175       O179   2.479       .  S
Cd175       O177   2.426       .  S
C178        O182   1.265       .  A
C178       C1052   1.475       .  S
O183        C186   1.272       .  A
O183       Cd188   2.506       .  S
C184        O193   1.261       .  A
C184        O189   1.273       .  A
C184       C1001   1.471       .  S
O185        C191   1.275       .  A
O185       Cd188   2.497       .  S
C186        O194   1.269       .  A
C186       C1664   1.482       .  S
C187        O192   1.273       .  A
C187        O190   1.263       .  A
C187       C1019   1.475       .  S
Cd188       O195   2.406       .  S
Cd188       O194   2.454       .  S
Cd188       O193   2.403       .  S
Cd188       O189   2.514       .  S
Cd188       O192   2.533       .  S
Cd188       O190   2.410       .  S
C191        O195   1.268       .  A
C191       C1034   1.475       .  S
O196        C199   1.274       .  A
O196       Cd201   2.502       .  S
C197        O206   1.264       .  A
C197        O202   1.271       .  A
C197        C962   1.481       .  S
O198        C204   1.272       .  A
O198       Cd201   2.530       .  S
C199        O207   1.264       .  A
C199        C998   1.472       .  S
C200        O205   1.274       .  A
C200        O203   1.267       .  A
C200        C983   1.476       .  S
Cd201       O208   2.426       .  S
Cd201       O207   2.416       .  S
Cd201       O206   2.440       .  S
Cd201       O202   2.537       .  S
Cd201       O205   2.512       .  S
Cd201       O203   2.412       .  S
C204        O208   1.261       .  A
C204       C1160   1.475       .  S
O209        C212   1.276       .  A
O209       Cd214   2.502       .  S
C210        O219   1.263       .  A
C210        O215   1.277       .  A
C210        C947   1.472       .  S
O211        C217   1.267       .  A
O211       Cd214   2.421       .  S
C212        O220   1.269       .  A
C212        C929   1.480       .  S
C213        O218   1.276       .  A
C213        O216   1.269       .  A
C213        C980   1.474       .  S
Cd214       O221   2.506       .  S
Cd214       O220   2.425       .  S
Cd214       O219   2.377       .  S
Cd214       O215   2.526       .  S
Cd214       O218   2.473       .  S
Cd214       O216   2.421       .  S
C217        O221   1.274       .  A
C217       C1451   1.476       .  S
O222        C225   1.275       .  A
O222       Cd227   2.480       .  S
C223        O232   1.268       .  A
C223        O228   1.273       .  A
C223       C1307   1.474       .  S
O224        C230   1.277       .  A
O224       Cd227   2.491       .  S
C225        O233   1.264       .  A
C225        C944   1.462       .  S
C226        O231   1.275       .  A
C226        O229   1.265       .  A
C226        C911   1.478       .  S
Cd227       O234   2.428       .  S
Cd227       O233   2.380       .  S
Cd227       O232   2.411       .  S
Cd227       O228   2.495       .  S
Cd227       O231   2.538       .  S
Cd227       O229   2.406       .  S
C230        O234   1.269       .  A
C230        C890   1.478       .  S
O235        C238   1.274       .  A
O235       Cd240   2.515       .  S
C236        O245   1.267       .  A
C236        O241   1.273       .  A
C236       C1340   1.476       .  S
O237        C243   1.271       .  A
O237       Cd240   2.522       .  S
C238        O246   1.263       .  A
C238        C854   1.471       .  S
C239        O244   1.275       .  A
C239        O242   1.267       .  A
C239        C893   1.475       .  S
Cd240       O247   2.434       .  S
Cd240       O246   2.400       .  S
Cd240       O245   2.437       .  S
Cd240       O241   2.501       .  S
Cd240       O244   2.496       .  S
Cd240       O242   2.406       .  S
C243        O247   1.264       .  A
C243        C875   1.476       .  S
O248        C251   1.273       .  A
O248       Cd253   2.515       .  S
C249        O258   1.268       .  A
C249        O254   1.273       .  A
C249        C818   1.482       .  S
O250        C256   1.272       .  A
O250       Cd253   2.535       .  S
C251        O259   1.262       .  A
C251        C857   1.470       .  S
C252        O257   1.275       .  A
C252        O255   1.268       .  A
C252        C836   1.475       .  S
Cd253       O260   2.410       .  S
Cd253       O259   2.407       .  S
Cd253       O258   2.455       .  S
Cd253       O254   2.510       .  S
Cd253       O257   2.487       .  S
Cd253       O255   2.416       .  S
C256        O260   1.263       .  A
C256       C1703   1.475       .  S
O261        C264   1.273       .  A
O261       Cd266   2.484       .  S
C262        O271   1.263       .  A
C262        O267   1.274       .  A
C262        C803   1.465       .  S
O263        C269   1.274       .  A
O263       Cd266   2.515       .  S
C264        O272   1.268       .  A
C264        C782   1.476       .  S
C265        O270   1.276       .  A
C265        O268   1.266       .  A
C265        C839   1.479       .  S
Cd266       O273   2.422       .  S
Cd266       O272   2.446       .  S
Cd266       O271   2.392       .  S
Cd266       O267   2.492       .  S
Cd266       O270   2.502       .  S
Cd266       O268   2.434       .  S
C269        O273   1.265       .  A
C269       C1520   1.476       .  S
O274        C277   1.271       .  A
O274       Cd279   2.484       .  S
C275        O284   1.265       .  A
C275        O280   1.275       .  A
C275        C800   1.464       .  S
O276        C282   1.273       .  A
O276       Cd279   2.498       .  S
C277        O285   1.265       .  A
C277       C1433   1.470       .  S
C278        O283   1.274       .  A
C278        O281   1.265       .  A
C278        C764   1.476       .  S
Cd279       O286   2.435       .  S
Cd279       O285   2.438       .  S
Cd279       O284   2.382       .  S
Cd279       O280   2.480       .  S
Cd279       O283   2.497       .  S
Cd279       O281   2.428       .  S
C282        O286   1.265       .  A
C282        C749   1.473       .  S
O287        C290   1.270       .  A
O287       Cd292   2.490       .  S
C288        O297   1.263       .  A
C288        O293   1.272       .  A
C288        C728   1.465   1_545  S
O289        C295   1.272       .  A
O289       Cd292   2.502       .  S
C290        O298   1.265       .  A
C290        C710   1.470       .  S
C291        O296   1.270       .  A
C291        O294   1.264       .  A
C291       C1358   1.472       .  S
Cd292       O299   2.389       .  S
Cd292       O298   2.428       .  S
Cd292       O297   2.407       .  S
Cd292       O293   2.480       .  S
Cd292       O296   2.495       .  S
Cd292       O294   2.447       .  S
C295        O299   1.264       .  A
C295       C1091   1.469       .  S
O300        C303   1.274       .  A
O300       Cd305   2.498       .  S
C301        O310   1.264       .  A
C301        O306   1.275       .  A
C301        C731   1.470       .  S
O302        C308   1.275       .  A
O302       Cd305   2.475       .  S
C303        O311   1.267       .  A
C303       C1142   1.476       .  S
C304        O309   1.274       .  A
C304        O307   1.265       .  A
C304        C692   1.480       .  S
Cd305       O312   2.437       .  S
Cd305       O311   2.418       .  S
Cd305       O310   2.393       .  S
Cd305       O306   2.515       .  S
Cd305       O309   2.524       .  S
Cd305       O307   2.426       .  S
C308        O312   1.270       .  A
C308        C767   1.477       .  S
O313        C316   1.271       .  A
O313       Cd318   2.523       .  S
C314        O323   1.265       .  A
C314        O319   1.273       .  A
C314        C656   1.469       .  S
O315        C321   1.273       .  A
O315       Cd318   2.509       .  S
C316        O324   1.264       .  A
C316       C1397   1.476       .  S
C317        O322   1.270       .  A
C317        O320   1.263       .  A
C317        C785   1.475       .  S
Cd318       O325   2.413       .  S
Cd318       O324   2.416       .  S
Cd318       O323   2.408       .  S
Cd318       O319   2.486       .  S
Cd318       O322   2.512       .  S
Cd318       O320   2.454       .  S
C321        O325   1.266       .  A
C321        C674   1.475       .  S
O326        C329   1.275       .  A
O326       Cd331   2.484       .  S
C327        O336   1.266       .  A
C327        O332   1.272       .  A
C327       C1055   1.479       .  S
O328        C334   1.272       .  A
O328       Cd331   2.519       .  S
C329        O337   1.265       .  A
C329        C659   1.469       .  S
C330        O335   1.275       .  A
C330        O333   1.267       .  A
C330        C638   1.477       .  S
Cd331       O338   2.442       .  S
Cd331       O337   2.412       .  S
Cd331       O336   2.426       .  S
Cd331       O332   2.529       .  S
Cd331       O335   2.500       .  S
Cd331       O333   2.423       .  S
C334        O338   1.264       .  A
C334       C1124   1.477       .  S
O339        C342   1.272       .  A
O339       Cd344   2.520       .  S
C340        O349   1.263       .  A
C340        O345   1.274       .  A
C340        C623   1.471       .  S
O341        C347   1.270       .  A
O341       Cd344   2.509       .  S
C342        O350   1.265       .  A
C342       C1541   1.481       .  S
C343        O348   1.273       .  A
C343        O346   1.266       .  A
C343        C602   1.476       .  S
Cd344       O351   2.436       .  S
Cd344       O350   2.450       .  S
Cd344       O349   2.421       .  S
Cd344       O345   2.500       .  S
Cd344       O348   2.493       .  S
Cd344       O346   2.429       .  S
C347        O351   1.263       .  A
C347        C713   1.472       .  S
O352        C355   1.274       .  A
O352       Cd357   2.537       .  S
C353        O362   1.265       .  A
C353        O358   1.276       .  A
C353        C620   1.472       .  S
O354        C360   1.271       .  A
O354       Cd357   2.500       .  S
C355        O363   1.266       .  A
C355        C872   1.482       .  S
C356        O361   1.274       .  A
C356        O359   1.267       .  A
C356        C641   1.476       .  S
Cd357       O364   2.444       .  S
Cd357       O363   2.417       .  S
Cd357       O362   2.388       .  S
Cd357       O358   2.506       .  S
Cd357       O361   2.489       .  S
Cd357       O359   2.428       .  S
C360        O364   1.266       .  A
C360       C1412   1.475       .  S
O365        C368   1.274       .  A
O365       Cd370   2.513       .  S
C366        O375   1.269       .  A
C366        O371   1.273       .  A
C366       C1736   1.475       .  S
O367        C373   1.273       .  A
O367       Cd370   2.528       .  S
C368        O376   1.263       .  A
C368        C584   1.471       .  S
C369        O374   1.276       .  A
C369        O372   1.268       .  A
C369        C605   1.477       .  S
Cd370       O377   2.443       .  S
Cd370       O376   2.401       .  S
Cd370       O375   2.444       .  S
Cd370       O371   2.474       .  S
Cd370       O374   2.490       .  S
Cd370       O372   2.427       .  S
C373        O377   1.265       .  A
C373        C926   1.481   1_655  S
O378        C381   1.271       .  A
O378       Cd383   2.516       .  S
C379        O388   1.268       .  A
C379        O384   1.270       .  A
C379        C746   1.476       .  S
O380        C386   1.272       .  A
O380       Cd383   2.543       .  S
C381        O389   1.261       .  A
C381        C587   1.470   1_455  S
C382        O387   1.273       .  A
C382        O385   1.265       .  A
C382        C569   1.475       .  S
Cd383       O390   2.436       .  S
Cd383       O389   2.408       .  S
Cd383       O388   2.465       .  S
Cd383       O384   2.480       .  S
Cd383       O387   2.508       .  S
Cd383       O385   2.417       .  S
C386        O390   1.264       .  A
C386       C1325   1.481       .  S
O391        C394   1.275       .  A
O391       Cd396   2.490       .  S
C392        O401   1.264       .  A
C392        O397   1.276       .  A
C392        C548   1.471   1_655  S
O393        C399   1.274       .  A
O393       Cd396   2.503       .  S
C394        O402   1.269       .  A
C394       C1016   1.477       .  S
C395        O400   1.276       .  A
C395        O398   1.269       .  A
C395        C566   1.473       .  S
Cd396       O403   2.422       .  S
Cd396       O402   2.426       .  S
Cd396       O401   2.383       .  S
Cd396       O397   2.514       .  S
Cd396       O400   2.470       .  S
Cd396       O398   2.418       .  S
C399        O403   1.266       .  A
C399       C1250   1.475       .  S
O404        C407   1.273       .  A
O404       Cd409   2.491       .  S
C405        O414   1.263       .  A
C405        O410   1.273       .  A
C405        C551   1.467       .  S
O406        C412   1.273       .  A
O406       Cd409   2.514       .  S
C407        O415   1.269       .  A
C407       C1487   1.477       .  S
C408        O413   1.276       .  A
C408        O411   1.267       .  A
C408        C533   1.475       .  S
Cd409       O416   2.438       .  S
Cd409       O415   2.435       .  S
Cd409       O414   2.397       .  S
Cd409       O410   2.507       .  S
Cd409       O413   2.500       .  S
Cd409       O411   2.404       .  S
C412        O416   1.265       .  A
C412        C821   1.477       .  S
O417        C420   1.272       .  A
O417       Cd422   2.501       .  S
C418        O427   1.273       .  A
C418        O423   1.262       .  A
C418        C512   1.464       .  S
O419        C425   1.276       .  A
O419       Cd422   2.484       .  S
C420        O428   1.268       .  A
C420        C908   1.475       .  S
C421        O426   1.271       .  A
C421        O424   1.264       .  A
C421       C1649   1.472       .  S
Cd422       O429   2.405       .  S
Cd422       O428   2.425       .  S
Cd422       O427   2.490       .  S
Cd422       O423   2.395       .  S
Cd422       O426   2.518       .  S
Cd422       O424   2.429       .  S
C425        O429   1.267       .  A
C425        C494   1.472       .  S
O430        C433   1.272       .  A
O430       Cd435   2.462       .  S
C431        O440   1.263       .  A
C431        O436   1.272       .  A
C431        C515   1.466       .  S
O432        C438   1.274       .  A
O432       Cd435   2.509       .  S
C433        O441   1.268       .  A
C433       C1196   1.469       .  S
C434        O439   1.274       .  A
C434        O437   1.265       .  A
C434       C1073   1.476       .  S
Cd435       O442   2.424       .  S
Cd435       O441   2.435       .  S
Cd435       O440   2.383       .  S
Cd435       O436   2.506       .  S
Cd435       O439   2.510       .  S
Cd435       O437   2.424       .  S
C438        O442   1.266       .  A
C438        C530   1.478       .  S
O443        C446   1.274       .  A
O443       Cd448   2.520       .  S
C444        O453   1.263       .  A
C444        O449   1.275       .  A
C444        C479   1.473       .  S
O445        C451   1.273       .  A
O445       Cd448   2.533       .  S
C446        O454   1.268       .  A
C446        C695   1.481       .  S
C447        O452   1.277       .  A
C447        O450   1.268       .  A
C447        C497   1.477       .  S
Cd448       O455   2.426       .  S
Cd448       O454   2.433       .  S
Cd448       O453   2.406       .  S
Cd448       O449   2.524       .  S
Cd448       O452   2.504       .  S
Cd448       O450   2.414       .  S
C451        O455   1.265       .  A
C451       C1574   1.481       .  S
O456        C459   1.274       .  A
O456       Cd461   2.486       .  S
C457        O466   1.266       .  A
C457        O462   1.276       .  A
C457        C476   1.466       .  S
O458        C464   1.275       .  A
O458       Cd461   2.515       .  S
C459        O467   1.270       .  A
C459       C1235   1.476       .  S
C460        O465   1.278       .  A
C460        O463   1.268       .  A
C460        C677   1.477       .  S
Cd461       O468   2.419       .  S
Cd461       O467   2.427       .  S
Cd461       O466   2.384       .  S
Cd461       O462   2.482       .  S
Cd461       O465   2.495       .  S
Cd461       O463   2.412       .  S
C464        O468   1.267       .  A
C464        C965   1.479       .  S
C469        C474   1.384       .  A
C469        C470   1.405       .  A
C469        N475   1.341       .  A
C470        C471   1.403       .  A
C470        H481   1.082       .  S
C471        C480   1.385       .  A
C471        C472   1.384       .  A
C472        C473   1.405       .  A
C472        N478   1.341       .  A
C473        C474   1.402       .  A
C473        H482   1.082       .  S
C474        C477   1.383       .  A
N475        C476   1.355       .  A
N475        H485   1.046       .  S
C476        C477   1.393       .  A
C477        H483   1.082       .  S
N478        C479   1.356       .  A
N478        H486   1.045       .  S
C479        C480   1.395       .  A
C480        H484   1.082       .  S
C487        C492   1.383       .  A
C487        C488   1.407       .  A
C487        N493   1.342       .  A
C488        C489   1.405       .  A
C488        H499   1.082       .  S
C489        C498   1.385       .  A
C489        C490   1.384       .  A
C490        C491   1.405       .  A
C490        N496   1.342       .  A
C491        C492   1.402       .  A
C491        H500   1.082       .  S
C492        C495   1.382       .  A
N493        C494   1.357       .  A
N493        H503   1.045       .  S
C494        C495   1.395       .  A
C495        H501   1.082       .  S
N496        C497   1.357       .  A
N496        H504   1.045       .  S
C497        C498   1.397       .  A
C498        H502   1.082       .  S
C505        C510   1.386       .  A
C505        C506   1.399       .  A
C505        N511   1.344       .  A
C506        C507   1.400   1_545  A
C506        H517   1.082   1_545  S
C507        C516   1.370       .  A
C507        C508   1.386       .  A
C508        C509   1.403   1_565  A
C508        N514   1.347       .  A
C509        C510   1.404       .  A
C509        H518   1.082       .  S
C510        C513   1.375       .  A
N511        C512   1.352       .  A
N511        H521   1.045       .  S
C512        C513   1.396       .  A
C513        H519   1.083       .  S
N514        C515   1.355       .  A
N514        H522   1.045       .  S
C515        C516   1.393       .  A
C516        H520   1.083       .  S
C523        C528   1.384       .  A
C523        C524   1.404       .  A
C523        N529   1.348       .  A
C524        C525   1.405       .  A
C524        H535   1.082       .  S
C525        C534   1.375       .  A
C525        C526   1.384       .  A
C526        C527   1.405       .  A
C526        N532   1.349       .  A
C527        C528   1.406       .  A
C527        H536   1.082       .  S
C528        C531   1.377       .  A
N529        C530   1.356       .  A
N529        H539   1.045       .  S
C530        C531   1.398       .  A
C531        H537   1.082       .  S
N532        C533   1.357       .  A
N532        H540   1.045       .  S
C533        C534   1.396       .  A
C534        H538   1.082       .  S
C541        C546   1.384       .  A
C541        C542   1.405       .  A
C541        N547   1.339       .  A
C542        C543   1.401       .  A
C542        H553   1.083       .  S
C543        C552   1.383       .  A
C543        C544   1.385       .  A
C544        C545   1.406       .  A
C544        N550   1.341       .  A
C545        C546   1.402       .  A
C545        H554   1.082       .  S
C546        C549   1.385       .  A
N547        C548   1.356       .  A
N547        H557   1.047       .  S
C548        C549   1.395       .  A
C549        H555   1.082       .  S
N550        C551   1.356       .  A
N550        H558   1.045       .  S
C551        C552   1.393       .  A
C552        H556   1.082       .  S
C559        C564   1.384   1_455  A
C559        C560   1.407       .  A
C559        N565   1.344   1_455  A
C560        C561   1.405       .  A
C560        H571   1.082       .  S
C561        C570   1.385       .  A
C561        C562   1.384       .  A
C562        C563   1.405   1_455  A
C562        N568   1.342       .  A
C563        C564   1.402       .  A
C563        H572   1.082       .  S
C564        C567   1.381       .  A
N565        C566   1.357       .  A
N565        H575   1.045   1_655  S
C566        C567   1.395       .  A
C567        H573   1.082       .  S
N568        C569   1.357       .  A
N568        H576   1.044       .  S
C569        C570   1.397       .  A
C570        H574   1.082       .  S
C577        C582   1.384       .  A
C577        C578   1.405       .  A
C577        N583   1.341       .  A
C578        C579   1.402       .  A
C578        H589   1.082       .  S
C579        C588   1.383       .  A
C579        C580   1.385       .  A
C580        C581   1.405       .  A
C580        N586   1.341       .  A
C581        C582   1.402       .  A
C581        H590   1.082       .  S
C582        C585   1.384       .  A
N583        C584   1.356       .  A
N583        H593   1.044       .  S
C584        C585   1.394       .  A
C585        H591   1.082       .  S
N586        C587   1.356       .  A
N586        H594   1.045       .  S
C587        C588   1.394       .  A
C588        H592   1.082       .  S
C595        C600   1.384       .  A
C595        C596   1.405       .  A
C595        N601   1.348       .  A
C596        C597   1.406       .  A
C596        H607   1.082       .  S
C597        C606   1.379       .  A
C597        C598   1.384       .  A
C598        C599   1.404       .  A
C598        N604   1.347       .  A
C599        C600   1.405       .  A
C599        H608   1.082       .  S
C600        C603   1.377       .  A
N601        C602   1.357       .  A
N601        H611   1.045       .  S
C602        C603   1.397       .  A
C603        H609   1.082       .  S
N604        C605   1.356       .  A
N604        H612   1.045       .  S
C605        C606   1.398       .  A
C606        H610   1.082       .  S
C613        C618   1.385       .  A
C613        C614   1.403       .  A
C613        N619   1.340       .  A
C614        C615   1.400   1_565  A
C614        H625   1.083       .  S
C615        C624   1.381       .  A
C615        C616   1.384       .  A
C616        C617   1.407       .  A
C616        N622   1.343       .  A
C617        C618   1.404   1_545  A
C617        H626   1.082       .  S
C618        C621   1.385       .  A
N619        C620   1.355       .  A
N619        H629   1.046       .  S
C620        C621   1.395       .  A
C621        H627   1.082       .  S
N622        C623   1.358       .  A
N622        H630   1.045       .  S
C623        C624   1.393       .  A
C624        H628   1.082       .  S
C631        C636   1.384       .  A
C631        C632   1.406       .  A
C631        N637   1.343       .  A
C632        C633   1.404       .  A
C632        H643   1.082       .  S
C633        C642   1.383       .  A
C633        C634   1.384       .  A
C634        C635   1.407       .  A
C634        N640   1.344       .  A
C635        C636   1.405       .  A
C635        H644   1.082       .  S
C636        C639   1.385       .  A
N637        C638   1.357       .  A
N637        H647   1.045       .  S
C638        C639   1.397       .  A
C639        H645   1.082       .  S
N640        C641   1.357       .  A
N640        H648   1.045       .  S
C641        C642   1.396       .  A
C642        H646   1.082       .  S
C649        C654   1.385       .  A
C649        C650   1.404       .  A
C649        N655   1.346       .  A
C650        C651   1.405       .  A
C650        H661   1.082       .  S
C651        C660   1.377       .  A
C651        C652   1.385       .  A
C652        C653   1.401       .  A
C652        N658   1.344       .  A
C653        C654   1.401       .  A
C653        H662   1.082       .  S
C654        C657   1.374       .  A
N655        C656   1.355       .  A
N655        H665   1.045       .  S
C656        C657   1.394       .  A
C657        H663   1.083       .  S
N658        C659   1.353       .  A
N658        H666   1.044       .  S
C659        C660   1.397       .  A
C660        H664   1.083       .  S
C667        C672   1.384       .  A
C667        C668   1.406   1_556  A
C667        N673   1.349       .  A
C668        C669   1.408       .  A
C668        H679   1.082       .  S
C669        C678   1.379       .  A
C669        C670   1.385       .  A
C670        C671   1.402   1_554  A
C670        N676   1.347       .  A
C671        C672   1.403       .  A
C671        H680   1.082       .  S
C672        C675   1.374       .  A
N673        C674   1.357       .  A
N673        H683   1.044       .  S
C674        C675   1.395       .  A
C675        H681   1.082       .  S
N676        C677   1.355       .  A
N676        H684   1.044       .  S
C677        C678   1.399       .  A
C678        H682   1.082       .  S
C685        C690   1.384       .  A
C685        C686   1.402   1_556  A
C685        N691   1.342   1_545  A
C686        C687   1.401       .  A
C686        H697   1.083       .  S
C687        C696   1.376       .  A
C687        C688   1.384   1_554  A
C688        C689   1.412       .  A
C688        N694   1.352       .  A
C689        C690   1.412       .  A
C689        H698   1.082       .  S
C690        C693   1.390       .  A
N691        C692   1.355       .  A
N691        H701   1.045       .  S
C692        C693   1.400   1_565  A
C693        H699   1.082       .  S
N694        C695   1.360   1_556  A
N694        H702   1.045       .  S
C695        C696   1.394       .  A
C696        H700   1.082       .  S
C703        C708   1.385       .  A
C703        C704   1.404       .  A
C703        N709   1.346       .  A
C704        C705   1.405       .  A
C704        H715   1.082       .  S
C705        C714   1.377       .  A
C705        C706   1.385       .  A
C706        C707   1.404       .  A
C706        N712   1.346       .  A
C707        C708   1.404       .  A
C707        H716   1.082       .  S
C708        C711   1.376       .  A
N709        C710   1.355       .  A
N709        H719   1.045       .  S
C710        C711   1.394       .  A
C711        H717   1.082       .  S
N712        C713   1.355       .  A
N712        H720   1.045       .  S
C713        C714   1.396       .  A
C714        H718   1.082       .  S
C721        C726   1.385       .  A
C721        C722   1.406       .  A
C721        N727   1.341       .  A
C722        C723   1.403       .  A
C722        H733   1.082       .  S
C723        C732   1.385       .  A
C723        C724   1.385       .  A
C724        C725   1.402       .  A
C724        N730   1.339       .  A
C725        C726   1.399       .  A
C725        H734   1.083       .  S
C726        C729   1.379       .  A
N727        C728   1.356       .  A
N727        H737   1.045       .  S
C728        C729   1.392       .  A
C729        H735   1.082       .  S
N730        C731   1.355       .  A
N730        H738   1.044       .  S
C731        C732   1.395       .  A
C732        H736   1.082       .  S
C739        C744   1.384       .  A
C739        C740   1.405       .  A
C739        N745   1.346       .  A
C740        C741   1.405       .  A
C740        H751   1.082       .  S
C741        C750   1.380       .  A
C741        C742   1.385       .  A
C742        C743   1.405       .  A
C742        N748   1.346       .  A
C743        C744   1.405       .  A
C743        H752   1.082       .  S
C744        C747   1.381       .  A
N745        C746   1.356       .  A
N745        H755   1.045       .  S
C746        C747   1.396       .  A
C747        H753   1.082       .  S
N748        C749   1.355       .  A
N748        H756   1.045       .  S
C749        C750   1.396       .  A
C750        H754   1.083       .  S
C757        C762   1.384       .  A
C757        C758   1.405       .  A
C757        N763   1.347       .  A
C758        C759   1.406       .  A
C758        H769   1.082       .  S
C759        C768   1.380       .  A
C759        C760   1.384       .  A
C760        C761   1.405       .  A
C760        N766   1.346       .  A
C761        C762   1.405       .  A
C761        H770   1.082       .  S
C762        C765   1.378       .  A
N763        C764   1.356       .  A
N763        H773   1.045       .  S
C764        C765   1.398       .  A
C765        H771   1.083       .  S
N766        C767   1.356       .  A
N766        H774   1.045       .  S
C767        C768   1.398       .  A
C768        H772   1.082       .  S
C775        C780   1.384       .  A
C775        C776   1.406       .  A
C775        N781   1.345       .  A
C776        C777   1.405       .  A
C776        H787   1.082       .  S
C777        C786   1.383       .  A
C777        C778   1.384       .  A
C778        C779   1.407       .  A
C778        N784   1.345       .  A
C779        C780   1.405       .  A
C779        H788   1.082       .  S
C780        C783   1.383       .  A
N781        C782   1.357       .  A
N781        H791   1.044       .  S
C782        C783   1.395       .  A
C783        H789   1.082       .  S
N784        C785   1.357       .  A
N784        H792   1.045       .  S
C785        C786   1.396       .  A
C786        H790   1.082       .  S
C793        C798   1.385       .  A
C793        C794   1.403       .  A
C793        N799   1.339       .  A
C794        C795   1.400   1_455  A
C794        H805   1.082       .  S
C795        C804   1.381       .  A
C795        C796   1.385       .  A
C796        C797   1.404   1_655  A
C796        N802   1.340       .  A
C797        C798   1.401       .  A
C797        H806   1.082   1_455  S
C798        C801   1.381       .  A
N799        C800   1.355       .  A
N799        H809   1.045       .  S
C800        C801   1.393       .  A
C801        H807   1.082       .  S
N802        C803   1.355       .  A
N802        H810   1.045       .  S
C803        C804   1.393       .  A
C804        H808   1.082       .  S
C811        C816   1.384       .  A
C811        C812   1.409       .  A
C811        N817   1.349       .  A
C812        C813   1.409       .  A
C812        H823   1.082       .  S
C813        C822   1.386       .  A
C813        C814   1.384       .  A
C814        C815   1.405       .  A
C814        N820   1.344   1_655  A
C815        C816   1.404       .  A
C815        H824   1.082       .  S
C816        C819   1.380       .  A
N817        C818   1.358       .  A
N817        H827   1.046       .  S
C818        C819   1.397       .  A
C819        H825   1.082       .  S
N820        C821   1.356       .  A
N820        H828   1.045       .  S
C821        C822   1.398   1_455  A
C822        H826   1.082       .  S
C829        C834   1.384       .  A
C829        C830   1.405       .  A
C829        N835   1.342       .  A
C830        C831   1.403       .  A
C830        H841   1.082       .  S
C831        C840   1.383       .  A
C831        C832   1.384       .  A
C832        C833   1.408       .  A
C832        N838   1.345       .  A
C833        C834   1.406       .  A
C833        H842   1.082       .  S
C834        C837   1.385       .  A
N835        C836   1.356       .  A
N835        H845   1.045       .  S
C836        C837   1.397       .  A
C837        H843   1.082       .  S
N838        C839   1.359       .  A
N838        H846   1.045       .  S
C839        C840   1.395       .  A
C840        H844   1.082       .  S
C847        C852   1.384       .  A
C847        C848   1.405       .  A
C847        N853   1.340       .  A
C848        C849   1.402       .  A
C848        H859   1.082       .  S
C849        C858   1.383       .  A
C849        C850   1.384       .  A
C850        C851   1.406       .  A
C850        N856   1.342       .  A
C851        C852   1.403       .  A
C851        H860   1.082       .  S
C852        C855   1.384       .  A
N853        C854   1.356       .  A
N853        H863   1.045       .  S
C854        C855   1.395       .  A
C855        H861   1.082       .  S
N856        C857   1.357       .  A
N856        H864   1.045       .  S
C857        C858   1.394       .  A
C858        H862   1.082       .  S
C865        C870   1.384       .  A
C865        C866   1.413       .  A
C865        N871   1.353       .  A
C866        C867   1.413       .  A
C866        H877   1.082       .  S
C867        C876   1.390       .  A
C867        C868   1.385       .  A
C868        C869   1.400       .  A
C868        N874   1.341       .  A
C869        C870   1.399       .  A
C869        H878   1.083       .  S
C870        C873   1.372       .  A
N871        C872   1.360       .  A
N871        H881   1.045       .  S
C872        C873   1.393       .  A
C873        H879   1.083       .  S
N874        C875   1.353       .  A
N874        H882   1.045       .  S
C875        C876   1.400       .  A
C876        H880   1.082       .  S
C883        C888   1.385       .  A
C883        C884   1.403       .  A
C883        N889   1.347       .  A
C884        C885   1.403       .  A
C884        H895   1.082       .  S
C885        C894   1.375       .  A
C885        C886   1.384       .  A
C886        C887   1.406       .  A
C886        N892   1.349       .  A
C887        C888   1.408       .  A
C887        H896   1.082       .  S
C888        C891   1.380       .  A
N889        C890   1.355       .  A
N889        H899   1.045       .  S
C890        C891   1.399       .  A
C891        H897   1.082       .  S
N892        C893   1.357       .  A
N892        H900   1.045       .  S
C893        C894   1.395       .  A
C894        H898   1.083       .  S
C901        C906   1.384       .  A
C901        C902   1.399       .  A
C901        N907   1.341       .  A
C902        C903   1.398       .  A
C902        H913   1.083       .  S
C903        C912   1.371       .  A
C903        C904   1.384       .  A
C904        C905   1.412       .  A
C904        N910   1.353       .  A
C905        C906   1.412       .  A
C905        H914   1.082       .  S
C906        C909   1.388       .  A
N907        C908   1.353       .  A
N907        H917   1.044       .  S
C908        C909   1.400       .  A
C909        H915   1.082       .  S
N910        C911   1.360       .  A
N910        H918   1.046       .  S
C911        C912   1.392       .  A
C912        H916   1.083       .  S
C919        C924   1.384       .  A
C919        C920   1.404       .  A
C919        N925   1.344       .  A
C920        C921   1.403       .  A
C920        H931   1.083       .  S
C921        C930   1.378       .  A
C921        C922   1.384       .  A
C922        C923   1.410       .  A
C922        N928   1.350       .  A
C923        C924   1.410       .  A
C923        H932   1.082       .  S
C924        C927   1.388       .  A
N925        C926   1.356       .  A
N925        H935   1.045   1_455  S
C926        C927   1.399       .  A
C927        H933   1.082       .  S
N928        C929   1.358       .  A
N928        H936   1.046       .  S
C929        C930   1.396       .  A
C930        H934   1.083       .  S
C937        C942   1.385       .  A
C937        C938   1.406       .  A
C937        N943   1.340       .  A
C938        C939   1.403       .  A
C938        H949   1.082       .  S
C939        C948   1.386       .  A
C939        C940   1.384       .  A
C940        C941   1.403       .  A
C940        N946   1.338       .  A
C941        C942   1.399       .  A
C941        H950   1.083       .  S
C942        C945   1.381       .  A
N943        C944   1.355       .  A
N943        H953   1.045       .  S
C944        C945   1.392       .  A
C945        H951   1.082       .  S
N946        C947   1.355       .  A
N946        H954   1.047       .  S
C947        C948   1.396       .  A
C948        H952   1.082       .  S
C955        C960   1.384       .  A
C955        C956   1.401       .  A
C955        N961   1.341       .  A
C956        C957   1.400       .  A
C956        H967   1.082       .  S
C957        C966   1.375       .  A
C957        C958   1.384       .  A
C958        C959   1.413       .  A
C958        N964   1.351       .  A
C959        C960   1.412       .  A
C959        H968   1.082       .  S
C960        C963   1.391       .  A
N961        C962   1.355       .  A
N961        H971   1.044       .  S
C962        C963   1.401       .  A
C963        H969   1.082       .  S
N964        C965   1.359       .  A
N964        H972   1.046       .  S
C965        C966   1.394       .  A
C966        H970   1.083       .  S
C973        C978   1.385       .  A
C973        C974   1.402       .  A
C973        N979   1.346       .  A
C974        C975   1.403       .  A
C974        H985   1.082       .  S
C975        C984   1.374       .  A
C975        C976   1.384       .  A
C976        C977   1.407       .  A
C976        N982   1.350       .  A
C977        C978   1.407       .  A
C977        H986   1.082       .  S
C978        C981   1.379       .  A
N979        C980   1.355       .  A
N979        H989   1.045       .  S
C980        C981   1.398       .  A
C981        H987   1.082       .  S
N982        C983   1.358       .  A
N982        H990   1.044       .  S
C983        C984   1.395       .  A
C984        H988   1.082       .  S
C991        C996   1.384       .  A
C991        C992   1.405       .  A
C991        N997   1.342       .  A
C992        C993   1.402   1_455  A
C992       H1003   1.082       .  S
C993       C1002   1.383       .  A
C993        C994   1.384       .  A
C994        C995   1.406       .  A
C994       N1000   1.342       .  A
C995        C996   1.403   1_655  A
C995       H1004   1.082       .  S
C996        C999   1.383       .  A
N997        C998   1.356       .  A
N997       H1007   1.046       .  S
C998        C999   1.395       .  A
C999       H1005   1.082       .  S
N1000      C1001   1.357       .  A
N1000      H1008   1.045       .  S
C1001      C1002   1.394       .  A
C1002      H1006   1.082       .  S
C1009      C1014   1.384       .  A
C1009      C1010   1.411       .  A
C1009      N1015   1.349       .  A
C1010      C1011   1.410       .  A
C1010      H1021   1.082       .  S
C1011      C1020   1.390       .  A
C1011      C1012   1.384       .  A
C1012      C1013   1.401       .  A
C1012      N1018   1.340       .  A
C1013      C1014   1.399       .  A
C1013      H1022   1.083       .  S
C1014      C1017   1.376       .  A
N1015      C1016   1.359       .  A
N1015      H1025   1.045       .  S
C1016      C1017   1.394       .  A
C1017      H1023   1.083       .  S
N1018      C1019   1.354       .  A
N1018      H1026   1.045       .  S
C1019      C1020   1.400       .  A
C1020      H1024   1.082       .  S
C1027      C1032   1.384       .  A
C1027      C1028   1.407       .  A
C1027      N1033   1.349       .  A
C1028      C1029   1.408       .  A
C1028      H1039   1.082       .  S
C1029      C1038   1.380       .  A
C1029      C1030   1.384       .  A
C1030      C1031   1.402       .  A
C1030      N1036   1.345       .  A
C1031      C1032   1.402       .  A
C1031      H1040   1.082       .  S
C1032      C1035   1.374       .  A
N1033      C1034   1.358       .  A
N1033      H1043   1.044       .  S
C1034      C1035   1.395       .  A
C1035      H1041   1.082       .  S
N1036      C1037   1.355       .  A
N1036      H1044   1.044       .  S
C1037      C1038   1.399       .  A
C1038      H1042   1.082       .  S
C1045      C1050   1.384   1_554  A
C1045      C1046   1.413       .  A
C1045      N1051   1.352       .  A
C1046      C1047   1.413   1_554  A
C1046      H1057   1.082       .  S
C1047      C1056   1.391       .  A
C1047      C1048   1.384       .  A
C1048      C1049   1.399       .  A
C1048      N1054   1.339       .  A
C1049      C1050   1.397       .  A
C1049      H1058   1.083       .  S
C1050      C1053   1.372   1_565  A
N1051      C1052   1.360   1_565  A
N1051      H1061   1.044       .  S
C1052      C1053   1.391   1_554  A
C1053      H1059   1.083       .  S
N1054      C1055   1.353       .  A
N1054      H1062   1.046       .  S
C1055      C1056   1.402       .  A
C1056      H1060   1.082   1_556  S
C1063      C1068   1.384       .  A
C1063      C1064   1.409       .  A
C1063      N1069   1.349       .  A
C1064      C1065   1.409       .  A
C1064      H1075   1.082       .  S
C1065      C1074   1.386       .  A
C1065      C1066   1.384       .  A
C1066      C1067   1.403       .  A
C1066      N1072   1.343       .  A
C1067      C1068   1.402       .  A
C1067      H1076   1.083       .  S
C1068      C1071   1.377       .  A
N1069      C1070   1.358       .  A
N1069      H1079   1.045       .  S
C1070      C1071   1.395       .  A
C1071      H1077   1.083       .  S
N1072      C1073   1.356       .  A
N1072      H1080   1.045       .  S
C1073      C1074   1.397       .  A
C1074      H1078   1.082       .  S
C1081      C1086   1.385   1_565  A
C1081      C1082   1.400   1_564  A
C1081      N1087   1.344       .  A
C1082      C1083   1.400       .  A
C1082      H1093   1.082   1_545  S
C1083      C1092   1.370       .  A
C1083      C1084   1.384       .  A
C1084      C1085   1.405   1_556  A
C1084      N1090   1.348       .  A
C1085      C1086   1.406       .  A
C1085      H1094   1.082       .  S
C1086      C1089   1.378       .  A
N1087      C1088   1.354       .  A
N1087      H1097   1.044       .  S
C1088      C1089   1.397   1_565  A
C1089      H1095   1.082       .  S
N1090      C1091   1.357       .  A
N1090      H1098   1.044       .  S
C1091      C1092   1.393       .  A
C1092      H1096   1.083       .  S
C1099      C1104   1.384       .  A
C1099      C1100   1.405       .  A
C1099      N1105   1.339       .  A
C1100      C1101   1.401       .  A
C1100      H1111   1.082       .  S
C1101      C1110   1.385       .  A
C1101      C1102   1.384       .  A
C1102      C1103   1.405       .  A
C1102      N1108   1.339       .  A
C1103      C1104   1.402       .  A
C1103      H1112   1.082       .  S
C1104      C1107   1.386       .  A
N1105      C1106   1.356       .  A
N1105      H1115   1.045       .  S
C1106      C1107   1.395       .  A
C1107      H1113   1.082       .  S
N1108      C1109   1.356       .  A
N1108      H1116   1.045       .  S
C1109      C1110   1.394       .  A
C1110      H1114   1.082       .  S
C1117      C1122   1.385       .  A
C1117      C1118   1.406       .  A
C1117      N1123   1.348       .  A
C1118      C1119   1.406       .  A
C1118      H1129   1.082       .  S
C1119      C1128   1.380       .  A
C1119      C1120   1.385       .  A
C1120      C1121   1.403       .  A
C1120      N1126   1.344       .  A
C1121      C1122   1.403       .  A
C1121      H1130   1.082       .  S
C1122      C1125   1.377       .  A
N1123      C1124   1.357       .  A
N1123      H1133   1.044       .  S
C1124      C1125   1.396       .  A
C1125      H1131   1.083       .  S
N1126      C1127   1.354       .  A
N1126      H1134   1.045       .  S
C1127      C1128   1.395       .  A
C1128      H1132   1.082       .  S
C1135      C1140   1.384       .  A
C1135      C1136   1.408   1_556  A
C1135      N1141   1.349       .  A
C1136      C1137   1.408       .  A
C1136      H1147   1.082       .  S
C1137      C1146   1.386       .  A
C1137      C1138   1.384   1_554  A
C1138      C1139   1.404       .  A
C1138      N1144   1.343       .  A
C1139      C1140   1.402       .  A
C1139      H1148   1.083       .  S
C1140      C1143   1.377       .  A
N1141      C1142   1.357       .  A
N1141      H1151   1.045   1_556  S
C1142      C1143   1.395       .  A
C1143      H1149   1.083       .  S
N1144      C1145   1.356   1_556  A
N1144      H1152   1.045   1_455  S
C1145      C1146   1.397       .  A
C1146      H1150   1.082       .  S
C1153      C1158   1.384       .  A
C1153      C1154   1.405       .  A
C1153      N1159   1.342       .  A
C1154      C1155   1.403       .  A
C1154      H1165   1.082       .  S
C1155      C1164   1.382       .  A
C1155      C1156   1.384       .  A
C1156      C1157   1.407       .  A
C1156      N1162   1.344       .  A
C1157      C1158   1.405       .  A
C1157      H1166   1.082       .  S
C1158      C1161   1.386       .  A
N1159      C1160   1.356       .  A
N1159      H1169   1.045       .  S
C1160      C1161   1.396       .  A
C1161      H1167   1.082       .  S
N1162      C1163   1.356       .  A
N1162      H1170   1.045       .  S
C1163      C1164   1.395       .  A
C1164      H1168   1.082       .  S
C1171      C1176   1.385       .  A
C1171      C1172   1.400       .  A
C1171      N1177   1.344       .  A
C1172      C1173   1.401       .  A
C1172      H1183   1.083       .  S
C1173      C1182   1.372       .  A
C1173      C1174   1.386       .  A
C1174      C1175   1.403       .  A
C1174      N1180   1.346       .  A
C1175      C1176   1.403       .  A
C1175      H1184   1.082       .  S
C1176      C1179   1.376   1_655  A
N1177      C1178   1.353   1_655  A
N1177      H1187   1.045       .  S
C1178      C1179   1.396       .  A
C1179      H1185   1.083       .  S
N1180      C1181   1.354       .  A
N1180      H1188   1.045       .  S
C1181      C1182   1.394       .  A
C1182      H1186   1.083       .  S
C1189      C1194   1.385       .  A
C1189      C1190   1.403       .  A
C1189      N1195   1.344       .  A
C1190      C1191   1.403       .  A
C1190      H1201   1.082       .  S
C1191      C1200   1.378       .  A
C1191      C1192   1.385       .  A
C1192      C1193   1.405       .  A
C1192      N1198   1.346       .  A
C1193      C1194   1.405       .  A
C1193      H1202   1.082       .  S
C1194      C1197   1.379       .  A
N1195      C1196   1.354       .  A
N1195      H1205   1.045       .  S
C1196      C1197   1.396       .  A
C1197      H1203   1.083       .  S
N1198      C1199   1.355       .  A
N1198      H1206   1.045       .  S
C1199      C1200   1.395       .  A
C1200      H1204   1.083       .  S
C1207      C1212   1.384       .  A
C1207      C1208   1.411       .  A
C1207      N1213   1.350       .  A
C1208      C1209   1.411       .  A
C1208      H1219   1.082       .  S
C1209      C1218   1.387       .  A
C1209      C1210   1.384       .  A
C1210      C1211   1.399       .  A
C1210      N1216   1.340       .  A
C1211      C1212   1.398       .  A
C1211      H1220   1.082       .  S
C1212      C1215   1.372       .  A
N1213      C1214   1.359       .  A
N1213      H1223   1.046       .  S
C1214      C1215   1.392       .  A
C1215      H1221   1.083       .  S
N1216      C1217   1.353       .  A
N1216      H1224   1.044       .  S
C1217      C1218   1.400       .  A
C1218      H1222   1.082       .  S
C1225      C1230   1.384       .  A
C1225      C1226   1.401       .  A
C1225      N1231   1.341       .  A
C1226      C1227   1.400       .  A
C1226      H1237   1.083       .  S
C1227      C1236   1.375       .  A
C1227      C1228   1.384       .  A
C1228      C1229   1.411       .  A
C1228      N1234   1.350       .  A
C1229      C1230   1.410       .  A
C1229      H1238   1.082       .  S
C1230      C1233   1.388       .  A
N1231      C1232   1.354       .  A
N1231      H1241   1.046       .  S
C1232      C1233   1.400       .  A
C1233      H1239   1.082       .  S
N1234      C1235   1.359       .  A
N1234      H1242   1.044       .  S
C1235      C1236   1.393       .  A
C1236      H1240   1.083       .  S
C1243      C1248   1.384       .  A
C1243      C1244   1.402       .  A
C1243      N1249   1.342       .  A
C1244      C1245   1.401       .  A
C1244      H1255   1.083       .  S
C1245      C1254   1.376       .  A
C1245      C1246   1.384       .  A
C1246      C1247   1.409       .  A
C1246      N1252   1.349       .  A
C1247      C1248   1.409       .  A
C1247      H1256   1.082       .  S
C1248      C1251   1.386       .  A
N1249      C1250   1.355       .  A
N1249      H1259   1.045       .  S
C1250      C1251   1.397       .  A
C1251      H1257   1.082       .  S
N1252      C1253   1.358       .  A
N1252      H1260   1.045       .  S
C1253      C1254   1.394       .  A
C1254      H1258   1.082       .  S
C1261      C1266   1.384       .  A
C1261      C1262   1.404       .  A
C1261      N1267   1.342       .  A
C1262      C1263   1.402       .  A
C1262      H1273   1.082       .  S
C1263      C1272   1.381       .  A
C1263      C1264   1.383       .  A
C1264      C1265   1.408       .  A
C1264      N1270   1.345       .  A
C1265      C1266   1.406       .  A
C1265      H1274   1.082       .  S
C1266      C1269   1.385       .  A
N1267      C1268   1.356       .  A
N1267      H1277   1.045       .  S
C1268      C1269   1.397       .  A
C1269      H1275   1.082       .  S
N1270      C1271   1.359       .  A
N1270      H1278   1.045       .  S
C1271      C1272   1.395       .  A
C1272      H1276   1.082       .  S
C1279      C1284   1.385       .  A
C1279      C1280   1.403       .  A
C1279      N1285   1.339       .  A
C1280      C1281   1.400       .  A
C1280      H1291   1.082       .  S
C1281      C1290   1.381       .  A
C1281      C1282   1.384       .  A
C1282      C1283   1.405       .  A
C1282      N1288   1.341       .  A
C1283      C1284   1.402       .  A
C1283      H1292   1.082       .  S
C1284      C1287   1.383       .  A
N1285      C1286   1.355       .  A
N1285      H1295   1.045       .  S
C1286      C1287   1.393       .  A
C1287      H1293   1.082       .  S
N1288      C1289   1.356       .  A
N1288      H1296   1.045       .  S
C1289      C1290   1.393       .  A
C1290      H1294   1.082       .  S
C1297      C1302   1.384       .  A
C1297      C1298   1.412       .  A
C1297      N1303   1.351       .  A
C1298      C1299   1.411       .  A
C1298      H1309   1.082       .  S
C1299      C1308   1.388       .  A
C1299      C1300   1.385       .  A
C1300      C1301   1.397       .  A
C1300      N1306   1.339       .  A
C1301      C1302   1.396       .  A
C1301      H1310   1.083       .  S
C1302      C1305   1.370       .  A
N1303      C1304   1.359       .  A
N1303      H1313   1.045       .  S
C1304      C1305   1.391       .  A
C1305      H1311   1.083       .  S
N1306      C1307   1.353       .  A
N1306      H1314   1.045       .  S
C1307      C1308   1.400       .  A
C1308      H1312   1.082       .  S
C1315      C1320   1.384       .  A
C1315      C1316   1.412       .  A
C1315      N1321   1.350       .  A
C1316      C1317   1.412       .  A
C1316      H1327   1.082       .  S
C1317      C1326   1.391       .  A
C1317      C1318   1.384       .  A
C1318      C1319   1.402       .  A
C1318      N1324   1.341       .  A
C1319      C1320   1.400       .  A
C1319      H1328   1.082       .  S
C1320      C1323   1.376       .  A
N1321      C1322   1.359       .  A
N1321      H1331   1.046       .  S
C1322      C1323   1.393       .  A
C1323      H1329   1.083       .  S
N1324      C1325   1.355       .  A
N1324      H1332   1.045       .  S
C1325      C1326   1.401       .  A
C1326      H1330   1.082       .  S
C1333      C1338   1.384       .  A
C1333      C1334   1.408       .  A
C1333      N1339   1.348       .  A
C1334      C1335   1.407       .  A
C1334      H1345   1.082       .  S
C1335      C1344   1.384       .  A
C1335      C1336   1.384       .  A
C1336      C1337   1.403       .  A
C1336      N1342   1.342       .  A
C1337      C1338   1.402       .  A
C1337      H1346   1.083       .  S
C1338      C1341   1.377       .  A
N1339      C1340   1.357       .  A
N1339      H1349   1.046       .  S
C1340      C1341   1.395       .  A
C1341      H1347   1.083       .  S
N1342      C1343   1.355       .  A
N1342      H1350   1.046       .  S
C1343      C1344   1.396       .  A
C1344      H1348   1.082       .  S
C1351      C1356   1.384       .  A
C1351      C1352   1.406       .  A
C1351      N1357   1.346       .  A
C1352      C1353   1.406       .  A
C1352      H1363   1.082       .  S
C1353      C1362   1.380       .  A
C1353      C1354   1.384       .  A
C1354      C1355   1.406       .  A
C1354      N1360   1.347       .  A
C1355      C1356   1.405       .  A
C1355      H1364   1.082       .  S
C1356      C1359   1.380       .  A
N1357      C1358   1.356       .  A
N1357      H1367   1.045       .  S
C1358      C1359   1.396       .  A
C1359      H1365   1.082       .  S
N1360      C1361   1.356       .  A
N1360      H1368   1.044       .  S
C1361      C1362   1.397       .  A
C1362      H1366   1.082       .  S
C1369      C1374   1.384       .  A
C1369      C1370   1.406       .  A
C1369      N1375   1.343       .  A
C1370      C1371   1.404       .  A
C1370      H1381   1.082       .  S
C1371      C1380   1.384       .  A
C1371      C1372   1.385       .  A
C1372      C1373   1.404       .  A
C1372      N1378   1.341       .  A
C1373      C1374   1.401       .  A
C1373      H1382   1.082       .  S
C1374      C1377   1.381       .  A
N1375      C1376   1.358       .  A
N1375      H1385   1.045       .  S
C1376      C1377   1.392       .  A
C1377      H1383   1.082       .  S
N1378      C1379   1.355       .  A
N1378      H1386   1.046       .  S
C1379      C1380   1.395       .  A
C1380      H1384   1.082       .  S
C1387      C1392   1.384       .  A
C1387      C1388   1.412       .  A
C1387      N1393   1.351       .  A
C1388      C1389   1.411       .  A
C1388      H1399   1.082       .  S
C1389      C1398   1.390       .  A
C1389      C1390   1.384       .  A
C1390      C1391   1.400       .  A
C1390      N1396   1.340       .  A
C1391      C1392   1.399       .  A
C1391      H1400   1.083       .  S
C1392      C1395   1.375       .  A
N1393      C1394   1.359       .  A
N1393      H1403   1.047       .  S
C1394      C1395   1.393       .  A
C1395      H1401   1.083       .  S
N1396      C1397   1.354       .  A
N1396      H1404   1.045       .  S
C1397      C1398   1.400       .  A
C1398      H1402   1.082       .  S
C1405      C1410   1.385       .  A
C1405      C1406   1.406       .  A
C1405      N1411   1.347       .  A
C1406      C1407   1.406       .  A
C1406      H1417   1.082       .  S
C1407      C1416   1.381       .  A
C1407      C1408   1.385       .  A
C1408      C1409   1.405       .  A
C1408      N1414   1.346       .  A
C1409      C1410   1.405       .  A
C1409      H1418   1.082       .  S
C1410      C1413   1.379       .  A
N1411      C1412   1.356       .  A
N1411      H1421   1.045       .  S
C1412      C1413   1.396       .  A
C1413      H1419   1.082       .  S
N1414      C1415   1.356       .  A
N1414      H1422   1.045       .  S
C1415      C1416   1.397       .  A
C1416      H1420   1.082       .  S
C1423      C1428   1.385       .  A
C1423      C1424   1.406       .  A
C1423      N1429   1.347       .  A
C1424      C1425   1.406       .  A
C1424      H1435   1.082       .  S
C1425      C1434   1.379       .  A
C1425      C1426   1.385       .  A
C1426      C1427   1.402       .  A
C1426      N1432   1.344       .  A
C1427      C1428   1.402       .  A
C1427      H1436   1.082       .  S
C1428      C1431   1.376       .  A
N1429      C1430   1.356       .  A
N1429      H1439   1.044       .  S
C1430      C1431   1.394       .  A
C1431      H1437   1.083       .  S
N1432      C1433   1.354       .  A
N1432      H1440   1.045       .  S
C1433      C1434   1.397       .  A
C1434      H1438   1.082       .  S
C1441      C1446   1.384       .  A
C1441      C1442   1.410       .  A
C1441      N1447   1.350       .  A
C1442      C1443   1.409       .  A
C1442      H1453   1.082       .  S
C1443      C1452   1.387       .  A
C1443      C1444   1.384       .  A
C1444      C1445   1.402       .  A
C1444      N1450   1.341       .  A
C1445      C1446   1.401       .  A
C1445      H1454   1.082       .  S
C1446      C1449   1.376       .  A
N1447      C1448   1.358       .  A
N1447      H1457   1.044       .  S
C1448      C1449   1.394       .  A
C1449      H1455   1.083       .  S
N1450      C1451   1.355       .  A
N1450      H1458   1.045       .  S
C1451      C1452   1.399       .  A
C1452      H1456   1.082       .  S
C1459      C1464   1.385       .  A
C1459      C1460   1.406       .  A
C1459      N1465   1.350       .  A
C1460      C1461   1.407       .  A
C1460      H1471   1.082       .  S
C1461      C1470   1.378       .  A
C1461      C1462   1.385       .  A
C1462      C1463   1.401       .  A
C1462      N1468   1.346       .  A
C1463      C1464   1.402       .  A
C1463      H1472   1.082       .  S
C1464      C1467   1.372       .  A
N1465      C1466   1.356       .  A
N1465      H1475   1.045       .  S
C1466      C1467   1.393       .  A
C1467      H1473   1.083       .  S
N1468      C1469   1.354   1_545  A
N1468      H1476   1.045       .  S
C1469      C1470   1.397   1_565  A
C1470      H1474   1.083   1_545  S
C1477      C1482   1.384       .  A
C1477      C1478   1.410       .  A
C1477      N1483   1.350       .  A
C1478      C1479   1.410       .  A
C1478      H1489   1.082       .  S
C1479      C1488   1.386       .  A
C1479      C1480   1.384       .  A
C1480      C1481   1.401       .  A
C1480      N1486   1.342       .  A
C1481      C1482   1.400       .  A
C1481      H1490   1.083       .  S
C1482      C1485   1.374   1_565  A
N1483      C1484   1.358   1_565  A
N1483      H1493   1.044       .  S
C1484      C1485   1.393       .  A
C1485      H1491   1.083       .  S
N1486      C1487   1.355       .  A
N1486      H1494   1.046       .  S
C1487      C1488   1.399       .  A
C1488      H1492   1.082       .  S
C1495      C1500   1.384       .  A
C1495      C1496   1.405       .  A
C1495      N1501   1.342       .  A
C1496      C1497   1.403       .  A
C1496      H1507   1.082       .  S
C1497      C1506   1.381       .  A
C1497      C1498   1.384       .  A
C1498      C1499   1.406       .  A
C1498      N1504   1.344       .  A
C1499      C1500   1.404       .  A
C1499      H1508   1.082       .  S
C1500      C1503   1.383       .  A
N1501      C1502   1.356       .  A
N1501      H1511   1.046       .  S
C1502      C1503   1.396       .  A
C1503      H1509   1.082       .  S
N1504      C1505   1.358       .  A
N1504      H1512   1.045       .  S
C1505      C1506   1.395       .  A
C1506      H1510   1.082       .  S
C1513      C1518   1.384       .  A
C1513      C1514   1.403       .  A
C1513      N1519   1.342       .  A
C1514      C1515   1.402       .  A
C1514      H1525   1.083       .  S
C1515      C1524   1.377       .  A
C1515      C1516   1.384       .  A
C1516      C1517   1.408       .  A
C1516      N1522   1.348       .  A
C1517      C1518   1.408       .  A
C1517      H1526   1.082       .  S
C1518      C1521   1.386       .  A
N1519      C1520   1.356       .  A
N1519      H1529   1.046       .  S
C1520      C1521   1.397       .  A
C1521      H1527   1.082       .  S
N1522      C1523   1.357       .  A
N1522      H1530   1.046       .  S
C1523      C1524   1.395       .  A
C1524      H1528   1.083       .  S
C1531      C1536   1.384       .  A
C1531      C1532   1.404       .  A
C1531      N1537   1.345       .  A
C1532      C1533   1.404       .  A
C1532      H1543   1.082       .  S
C1533      C1542   1.378       .  A
C1533      C1534   1.384       .  A
C1534      C1535   1.407       .  A
C1534      N1540   1.349       .  A
C1535      C1536   1.407       .  A
C1535      H1544   1.082       .  S
C1536      C1539   1.383       .  A
N1537      C1538   1.355       .  A
N1537      H1547   1.045       .  S
C1538      C1539   1.396       .  A
C1539      H1545   1.082       .  S
N1540      C1541   1.357       .  A
N1540      H1548   1.044       .  S
C1541      C1542   1.397       .  A
C1542      H1546   1.082       .  S
C1549      C1554   1.384   1_655  A
C1549      C1550   1.403   1_656  A
C1549      N1555   1.345       .  A
C1550      C1551   1.403       .  A
C1550      H1561   1.082   1_455  S
C1551      C1560   1.376       .  A
C1551      C1552   1.385       .  A
C1552      C1553   1.403   1_554  A
C1552      N1558   1.345       .  A
C1553      C1554   1.403       .  A
C1553      H1562   1.082       .  S
C1554      C1557   1.377       .  A
N1555      C1556   1.355       .  A
N1555      H1565   1.044       .  S
C1556      C1557   1.396   1_655  A
C1557      H1563   1.082       .  S
N1558      C1559   1.355       .  A
N1558      H1566   1.045       .  S
C1559      C1560   1.396       .  A
C1560      H1564   1.083       .  S
C1567      C1572   1.384   1_554  A
C1567      C1568   1.412       .  A
C1567      N1573   1.352       .  A
C1568      C1569   1.412   1_554  A
C1568      H1579   1.082       .  S
C1569      C1578   1.388       .  A
C1569      C1570   1.384       .  A
C1570      C1571   1.402       .  A
C1570      N1576   1.343       .  A
C1571      C1572   1.401       .  A
C1571      H1580   1.082       .  S
C1572      C1575   1.375       .  A
N1573      C1574   1.360       .  A
N1573      H1583   1.045       .  S
C1574      C1575   1.395   1_554  A
C1575      H1581   1.083       .  S
N1576      C1577   1.355       .  A
N1576      H1584   1.045       .  S
C1577      C1578   1.400       .  A
C1578      H1582   1.082   1_556  S
C1585      C1590   1.384       .  A
C1585      C1586   1.406       .  A
C1585      N1591   1.342       .  A
C1586      C1587   1.403       .  A
C1586      H1597   1.082       .  S
C1587      C1596   1.384       .  A
C1587      C1588   1.384       .  A
C1588      C1589   1.404       .  A
C1588      N1594   1.340       .  A
C1589      C1590   1.401       .  A
C1589      H1598   1.082       .  S
C1590      C1593   1.381       .  A
N1591      C1592   1.357       .  A
N1591      H1601   1.045       .  S
C1592      C1593   1.395       .  A
C1593      H1599   1.082       .  S
N1594      C1595   1.355       .  A
N1594      H1602   1.045       .  S
C1595      C1596   1.396       .  A
C1596      H1600   1.082       .  S
C1603      C1608   1.386       .  A
C1603      C1604   1.401       .  A
C1603      N1609   1.346       .  A
C1604      C1605   1.402       .  A
C1604      H1615   1.082       .  S
C1605      C1614   1.373       .  A
C1605      C1606   1.385       .  A
C1606      C1607   1.403       .  A
C1606      N1612   1.348       .  A
C1607      C1608   1.405       .  A
C1607      H1616   1.082       .  S
C1608      C1611   1.375       .  A
N1609      C1610   1.354       .  A
N1609      H1619   1.044       .  S
C1610      C1611   1.396       .  A
C1611      H1617   1.083       .  S
N1612      C1613   1.355       .  A
N1612      H1620   1.045       .  S
C1613      C1614   1.394       .  A
C1614      H1618   1.083       .  S
C1621      C1626   1.385       .  A
C1621      C1622   1.409       .  A
C1621      N1627   1.349       .  A
C1622      C1623   1.409       .  A
C1622      H1633   1.082       .  S
C1623      C1632   1.385       .  A
C1623      C1624   1.385       .  A
C1624      C1625   1.398       .  A
C1624      N1630   1.339   1_556  A
C1625      C1626   1.397       .  A
C1625      H1634   1.083   1_556  S
C1626      C1629   1.370   1_655  A
N1627      C1628   1.358   1_655  A
N1627      H1637   1.046       .  S
C1628      C1629   1.390       .  A
C1629      H1635   1.083       .  S
N1630      C1631   1.353       .  A
N1630      H1638   1.045       .  S
C1631      C1632   1.399   1_554  A
C1632      H1636   1.082       .  S
C1639      C1644   1.384       .  A
C1639      C1640   1.401       .  A
C1639      N1645   1.342       .  A
C1640      C1641   1.401       .  A
C1640      H1651   1.082       .  S
C1641      C1650   1.375       .  A
C1641      C1642   1.384       .  A
C1642      C1643   1.410       .  A
C1642      N1648   1.350       .  A
C1643      C1644   1.409       .  A
C1643      H1652   1.082       .  S
C1644      C1647   1.385       .  A
N1645      C1646   1.355       .  A
N1645      H1655   1.045       .  S
C1646      C1647   1.398       .  A
C1647      H1653   1.082       .  S
N1648      C1649   1.359       .  A
N1648      H1656   1.044       .  S
C1649      C1650   1.392       .  A
C1650      H1654   1.082       .  S
C1657      C1662   1.384       .  A
C1657      C1658   1.413       .  A
C1657      N1663   1.351       .  A
C1658      C1659   1.412       .  A
C1658      H1669   1.082       .  S
C1659      C1668   1.390       .  A
C1659      C1660   1.384       .  A
C1660      C1661   1.402       .  A
C1660      N1666   1.342       .  A
C1661      C1662   1.401       .  A
C1661      H1670   1.082       .  S
C1662      C1665   1.377       .  A
N1663      C1664   1.360       .  A
N1663      H1673   1.046       .  S
C1664      C1665   1.394       .  A
C1665      H1671   1.082       .  S
N1666      C1667   1.355       .  A
N1666      H1674   1.044       .  S
C1667      C1668   1.400       .  A
C1668      H1672   1.082       .  S
C1675      C1680   1.385       .  A
C1675      C1676   1.404       .  A
C1675      N1681   1.347       .  A
C1676      C1677   1.405       .  A
C1676      H1687   1.082       .  S
C1677      C1686   1.376       .  A
C1677      C1678   1.385   1_565  A
C1678      C1679   1.400       .  A
C1678      N1684   1.345       .  A
C1679      C1680   1.401   1_545  A
C1679      H1688   1.082       .  S
C1680      C1683   1.371       .  A
N1681      C1682   1.356       .  A
N1681      H1691   1.045       .  S
C1682      C1683   1.395       .  A
C1683      H1689   1.083       .  S
N1684      C1685   1.354       .  A
N1684      H1692   1.044       .  S
C1685      C1686   1.397   1_545  A
C1686      H1690   1.082       .  S
C1693      C1698   1.384       .  A
C1693      C1694   1.413       .  A
C1693      N1699   1.351       .  A
C1694      C1695   1.413       .  A
C1694      H1705   1.082       .  S
C1695      C1704   1.391       .  A
C1695      C1696   1.384       .  A
C1696      C1697   1.398       .  A
C1696      N1702   1.338       .  A
C1697      C1698   1.396       .  A
C1697      H1706   1.083       .  S
C1698      C1701   1.372       .  A
N1699      C1700   1.360       .  A
N1699      H1709   1.045       .  S
C1700      C1701   1.391       .  A
C1701      H1707   1.083       .  S
N1702      C1703   1.353       .  A
N1702      H1710   1.045       .  S
C1703      C1704   1.401       .  A
C1704      H1708   1.082       .  S
C1711      C1716   1.385       .  A
C1711      C1712   1.403       .  A
C1711      N1717   1.338       .  A
C1712      C1713   1.400       .  A
C1712      H1723   1.083       .  S
C1713      C1722   1.382       .  A
C1713      C1714   1.385       .  A
C1714      C1715   1.406       .  A
C1714      N1720   1.340       .  A
C1715      C1716   1.402       .  A
C1715      H1724   1.082       .  S
C1716      C1719   1.384       .  A
N1717      C1718   1.355       .  A
N1717      H1727   1.047       .  S
C1718      C1719   1.394       .  A
C1719      H1725   1.082       .  S
N1720      C1721   1.356       .  A
N1720      H1728   1.046       .  S
C1721      C1722   1.393       .  A
C1722      H1726   1.082       .  S
C1729      C1734   1.384       .  A
C1729      C1730   1.407       .  A
C1729      N1735   1.346       .  A
C1730      C1731   1.406       .  A
C1730      H1741   1.082       .  S
C1731      C1740   1.385       .  A
C1731      C1732   1.384       .  A
C1732      C1733   1.405       .  A
C1732      N1738   1.343   1_545  A
C1733      C1734   1.403       .  A
C1733      H1742   1.083       .  S
C1734      C1737   1.380       .  A
N1735      C1736   1.356       .  A
N1735      H1745   1.046       .  S
C1736      C1737   1.396       .  A
C1737      H1743   1.083       .  S
N1738      C1739   1.356       .  A
N1738      H1746   1.045       .  S
C1739      C1740   1.397   1_565  A
C1740      H1744   1.082       .  S
C1747      C1752   1.384       .  A
C1747      C1748   1.405       .  A
C1747      N1753   1.348       .  A
C1748      C1749   1.406       .  A
C1748      H1759   1.082       .  S
C1749      C1758   1.378       .  A
C1749      C1750   1.384       .  A
C1750      C1751   1.405       .  A
C1750      N1756   1.348       .  A
C1751      C1752   1.405       .  A
C1751      H1760   1.082       .  S
C1752      C1755   1.377       .  A
N1753      C1754   1.356       .  A
N1753      H1763   1.044       .  S
C1754      C1755   1.397       .  A
C1755      H1761   1.082       .  S
N1756      C1757   1.356       .  A
N1756      H1764   1.045       .  S
C1757      C1758   1.397       .  A
C1758      H1762   1.082       .  S
