geometry optimzed in LAMMPS
_audit_creation_date              2020-12-01 
_audit_creation_method            'lammps2cif' 
_symmetry_space_group_name_H-M    'P1' 
_symmetry_Int_Tables_number       1 
_symmetry_cell_setting            triclinic 
loop_ 
_symmetry_equiv_pos_as_xyz 
  x,y,z 
_cell_length_a                    48.07207995 
_cell_length_b                    48.28200944833886 
_cell_length_c                    26.96426751828035 
_cell_angle_alpha                 89.76565852774922 
_cell_angle_beta                  89.42375774569999 
_cell_angle_gamma                 119.7810474864366 
loop_ 
_atom_site_label 
_atom_site_type_symbol 
_atom_site_fract_x 
_atom_site_fract_y 
_atom_site_fract_z 
_atom_site_charge 
In1        In  0.38545158  0.26390952  0.25004243     1.36900
C2          C  0.44359370  0.29606979  0.28926954     0.79100
O3          O  0.35575369  0.25885731  0.31790017    -0.59400
O4          O  0.36661860  0.22229916  0.30329803    -0.50300
C5          C  0.35914121  0.29472742  0.20571057     0.71700
O6          O  0.38876282  0.30796033  0.21436073    -0.45100
C7          C  0.38544693  0.23067562  0.17162654     0.76500
O8          O  0.42461739  0.30702685  0.28792033    -0.57000
O9          O  0.36309076  0.21989889  0.20354235    -0.47100
O10         O  0.43269487  0.26894804  0.27006544    -0.53400
C11         C  0.35276178  0.23251940  0.33154839     0.86600
O12         O  0.34346085  0.26610195  0.22015358    -0.55300
O13         O  0.40805337  0.25839295  0.18030110    -0.58600
In14       In  0.26437338  0.38688369  0.08403564     1.36900
C15         C  0.29584979  0.35804160  0.11683850     0.79100
O16         O  0.26278064  0.39701898  0.16519845    -0.59400
O17         O  0.22185941  0.38528161  0.12253451    -0.50300
C18         C  0.29526766  0.44564612  0.04670660     0.71700
O19         O  0.30929303  0.43021841  0.05707336    -0.45100
C20         C  0.23246840  0.35321497  0.00490144     0.76500
O21         O  0.30913109  0.38780471  0.11026876    -0.57000
O22         O  0.22069156  0.34692622  0.04824153    -0.47100
O23         O  0.26660798  0.34314912  0.10550947    -0.53400
C24         C  0.23468500  0.39256316  0.16446597     0.86600
O25         O  0.26574218  0.43128872  0.05711871    -0.55300
O26         O  0.26094790  0.37593658  0.00261429    -0.58600
In27       In  0.38267854  0.12873714  0.91615972     1.36900
C28         C  0.44060075  0.15857673  0.87539591     0.79100
O29         O  0.37096078  0.12077701  0.83553771    -0.59400
O30         O  0.34631938  0.13814043  0.88001532    -0.50300
C31         C  0.35788456  0.06935002  0.95088777     0.71700
O32         O  0.38633014  0.09052510  0.95917421    -0.45100
C33         C  0.38327765  0.16094761  0.99661805     0.76500
O34         O  0.42629462  0.12911215  0.88598434    -0.57000
O35         O  0.35835114  0.14445897  0.97193758    -0.47100
O36         O  0.42507895  0.17255694  0.88627194    -0.52200
C37         C  0.35026902  0.12951189  0.83767357     0.86600
O38         O  0.34305446  0.07839411  0.92313620    -0.55300
O39         O  0.40782402  0.16108194  0.97971267    -0.58600
In40       In  0.12703010  0.25701238  0.75058559     1.36900
C41         C  0.06728408  0.22518204  0.78580604     0.79100
O42         O  0.13787403  0.25871509  0.83173512    -0.59400
O43         O  0.16669353  0.29983132  0.78791124    -0.50300
C44         C  0.15572158  0.22598412  0.71514898     0.71700
O45         O  0.12570738  0.21388423  0.71753106    -0.45100
C46         C  0.12334794  0.28799740  0.67104404     0.76500
O47         O  0.08463935  0.21259694  0.78043158    -0.57000
O48         O  0.13020172  0.30043164  0.71339754    -0.47100
O49         O  0.08058429  0.25407536  0.77250551    -0.53400
C50         C  0.16086934  0.28700197  0.83043553     0.86600
O51         O  0.17105147  0.25403231  0.73145254    -0.55300
O52         O  0.11822532  0.25979832  0.66985169    -0.58600
In53       In  0.24745619  0.13202229  0.58806121     1.36900
C54         C  0.21794844  0.16052518  0.62958856     0.79100
O55         O  0.24938661  0.11610480  0.66555444    -0.59400
O56         O  0.29324845  0.14634522  0.62785903    -0.50300
C57         C  0.21453179  0.07360562  0.54981152     0.71700
O58         O  0.20667139  0.09464203  0.54285247    -0.45100
C59         C  0.28117597  0.16453223  0.50795283     0.76500
O60         O  0.20309543  0.13177482  0.61592280    -0.57000
O61         O  0.28758734  0.14626943  0.53261274    -0.47100
O62         O  0.24778388  0.17451161  0.62148462    -0.53400
C63         C  0.27958952  0.13084307  0.66691200     0.86600
O64         O  0.23805216  0.08225458  0.57796297    -0.55300
O65         O  0.25772346  0.16653735  0.52483093    -0.58600
In66       In  0.12826016  0.39210077  0.41555833     1.36900
C67         C  0.15561337  0.45061291  0.45336229     0.79100
O68         O  0.11485505  0.37822856  0.49560574    -0.59400
O69         O  0.13190605  0.35265471  0.45373694    -0.50300
C70         C  0.06952623  0.36203908  0.37753676     0.71700
O71         O  0.08337789  0.39103080  0.38954616    -0.45100
C72         C  0.16563697  0.39771564  0.33788978     0.76500
O73         O  0.12732308  0.43663918  0.43750911    -0.57000
O74         O  0.16885822  0.38852816  0.38011032    -0.47100
O75         O  0.17004631  0.43499260  0.44809880    -0.53400
C76         C  0.12242726  0.35671327  0.49536423     0.86600
O77         O  0.08558423  0.34843160  0.38613315    -0.55300
O78         O  0.14408934  0.40529190  0.33611718    -0.58600
C79         C  0.19719072  0.49173116  0.50803722     0.25100
C80         C  0.17045432  0.48219485  0.47753370    -0.23000
C81         C  0.15776527  0.50273980  0.47161068     0.20000
C82         C  0.17170788  0.03230125  0.49550587     0.25000
C83         C  0.19853800  0.04183343  0.52597032    -0.23000
C84         C  0.21102340  0.02109899  0.53196599     0.19900
F85         F  0.23695143  0.02924658  0.56071162    -0.12900
F86         F  0.20980357  0.47238738  0.51556227    -0.15300
F87         F  0.15900421  0.05160164  0.48847165    -0.15300
F88         F  0.13221953  0.49452603  0.44195712    -0.12900
C89         C  0.15344709  0.17937618  0.67053381     0.25100
C90         C  0.17153439  0.20881249  0.69449229    -0.23000
C91         C  0.20491284  0.22179043  0.69798784     0.20000
C92         C  0.21989209  0.20590574  0.67749061     0.25000
C93         C  0.20186179  0.17670968  0.65287527    -0.23000
C94         C  0.16843009  0.16346803  0.65011868     0.19900
F95         F  0.15016992  0.13539566  0.62668410    -0.12900
F96         F  0.12122833  0.16612116  0.66592643    -0.15300
F97         F  0.25208266  0.21903672  0.68234943    -0.15300
F98         F  0.22320119  0.24986233  0.72143777    -0.12900
C99         C  0.11896981  0.34922136  0.58778727     0.25100
C100        C  0.12112068  0.33835103  0.54029050    -0.23000
C101        C  0.12321435  0.31039029  0.53627332     0.20000
C102        C  0.12332624  0.29377846  0.57875976     0.25000
C103        C  0.12183531  0.30499466  0.62626442    -0.23000
C104        C  0.11940865  0.33275950  0.63033433     0.19900
F105        F  0.11725498  0.34395001  0.67548864    -0.12900
F106        F  0.11728513  0.37629651  0.59325687    -0.15300
F107        F  0.12565784  0.26705488  0.57324223    -0.15300
F108        F  0.12523243  0.29903302  0.49118723    -0.12900
C109        C  0.48640224  0.20758687  0.83703229     0.25100
C110        C  0.47279234  0.17538581  0.85176767    -0.23000
C111        C  0.49016737  0.15942830  0.84325666     0.20000
C112        C  0.02063969  0.17543631  0.82115133     0.25000
C113        C  0.03440716  0.20775712  0.80699222    -0.23000
C114        C  0.01675774  0.22351848  0.81463908     0.19900
F115        F  0.02885122  0.25450714  0.80074616    -0.12900
F116        F  0.47040318  0.22385628  0.84417832    -0.15300
F117        F  0.03663761  0.15918153  0.81386132    -0.15300
F118        F  0.47788211  0.12833407  0.85666713    -0.12900
C119        C  0.34685501  0.13734732  0.74695770     0.25100
C120        C  0.33210839  0.12949950  0.79408185    -0.23000
C121        C  0.29982056  0.12134329  0.79913463     0.20000
C122        C  0.28249843  0.12110166  0.75763385     0.25000
C123        C  0.29751428  0.13000672  0.71059044    -0.23000
C124        C  0.32988124  0.13810337  0.70568821     0.19900
F125        F  0.34505292  0.14631198  0.66082327    -0.12900
F126        F  0.37796417  0.14499618  0.74101791    -0.15300
F127        F  0.25115127  0.11251678  0.76371093    -0.15300
F128        F  0.28478233  0.11275914  0.84409024    -0.12900
C129        C  0.22733039  0.39160242  0.25672657     0.25100
C130        C  0.21806799  0.39536925  0.20898022    -0.23000
C131        C  0.19227754  0.40112442  0.20410339     0.20000
C132        C  0.17590286  0.40284956  0.24605044     0.25000
C133        C  0.18466768  0.39840054  0.29384344    -0.23000
C134        C  0.21065335  0.39284706  0.29871292     0.19900
F135        F  0.21968975  0.38806102  0.34404106    -0.12900
F136        F  0.25177695  0.38547430  0.26279937    -0.15300
F137        F  0.15084183  0.40797983  0.23958815    -0.15300
F138        F  0.18283097  0.40512992  0.15862941    -0.12900
C139        C  0.36047364  0.02640891  0.99998295     0.25100
C140        C  0.34247211  0.03712061  0.97348052    -0.23000
C141        C  0.30898874  0.01739202  0.97115022     0.20000
C142        C  0.29374027  0.98805737  0.99591413     0.25000
C143        C  0.31164711  0.47736897  0.02256883    -0.23000
C144        C  0.34518459  0.49671106  0.02417577     0.19900
F145        F  0.36315262  0.48721989  0.05000098    -0.12900
F146        F  0.39285592  0.04459504  0.00252816    -0.15300
F147        F  0.26136202  0.96990814  0.99305906    -0.15300
F148        F  0.29071542  0.02658753  0.94549024    -0.12900
C149        C  0.16803949  0.29088915  0.92288898     0.25100
C150        C  0.17932705  0.30370331  0.87506894    -0.23000
C151        C  0.20828777  0.33281078  0.87042156     0.20000
C152        C  0.22563080  0.34864612  0.91248948     0.25000
C153        C  0.21433429  0.33589798  0.96033774    -0.23000
C154        C  0.18521997  0.30691215  0.96502299     0.19900
F155        F  0.17329681  0.29389296  0.01041475    -0.12900
F156        F  0.14004956  0.26302484  0.92912916    -0.15300
F157        F  0.25321886  0.37688030  0.90621929    -0.15300
F158        F  0.22004226  0.34603161  0.82506605    -0.12900
C159        C  0.31812403  0.17163319  0.43670943     0.25100
C160        C  0.29950783  0.18193271  0.46293593    -0.23000
C161        C  0.29841779  0.20886521  0.44550533     0.20000
C162        C  0.31581995  0.22535540  0.40304321     0.25000
C163        C  0.33449432  0.21511004  0.37675169    -0.23000
C164        C  0.33538452  0.18799446  0.39405444     0.19900
F165        F  0.35306267  0.17726054  0.36990896    -0.12900
F166        F  0.31912082  0.14524908  0.45166679    -0.15300
F167        F  0.31413068  0.25127044  0.38758307    -0.15300
F168        F  0.28083168  0.21960209  0.46991743    -0.12900
C169        C  0.01831149  0.36002738  0.35225053     0.25100
C170        C  0.03734800  0.34539934  0.35483265    -0.23000
C171        C  0.02543570  0.31469284  0.33497614     0.20000
C172        C  0.49508508  0.29880876  0.31378314     0.25000
C173        C  0.47587544  0.31326334  0.31158762    -0.23000
C174        C  0.48788002  0.34410660  0.33100856     0.19900
F175        F  0.47025102  0.35900433  0.32950503    -0.12900
F176        F  0.02900630  0.38975160  0.37047691    -0.15300
F177        F  0.48457742  0.26912471  0.29548671    -0.15300
F178        F  0.04329832  0.30001674  0.33531000    -0.12900
C179        C  0.29589254  0.30886291  0.14678972     0.25100
C180        C  0.31278171  0.34192577  0.13726608    -0.23000
C181        C  0.34560670  0.35935644  0.14894833     0.20000
C182        C  0.36088928  0.34408945  0.17061532     0.25000
C183        C  0.34371169  0.31109988  0.18104652    -0.23000
C184        C  0.31112523  0.29365939  0.16827229     0.19900
F185        F  0.29371083  0.26170024  0.17664801    -0.12900
F186        F  0.26431372  0.29103104  0.13595495    -0.15300
F187        F  0.39238918  0.36179060  0.18204480    -0.15300
F188        F  0.36296427  0.39125065  0.13988476    -0.12900
C189        C  0.35569482  0.18824880  0.10898986     0.25100
C190        C  0.38496451  0.21249226  0.12740010    -0.23000
C191        C  0.41365695  0.21953280  0.10264715     0.20000
C192        C  0.41309216  0.20270077  0.06026418     0.25000
C193        C  0.38379638  0.17861253  0.04158014    -0.23000
C194        C  0.35509948  0.17152915  0.06643472     0.19900
F195        F  0.32639474  0.14819601  0.04991800    -0.12900
F196        F  0.32749402  0.18119626  0.13145524    -0.15300
F197        F  0.44127542  0.21038222  0.03713148    -0.15300
F198        F  0.44238161  0.24244437  0.11979577    -0.12900
In199      In  0.38545159  0.76390953  0.25004240     1.36900
C200        C  0.44359364  0.79606982  0.28926960     0.79100
O201        O  0.35575373  0.75885731  0.31790017    -0.59400
O202        O  0.36661865  0.72229917  0.30329796    -0.50300
C203        C  0.35914113  0.79472725  0.20571048     0.71700
O204        O  0.38876284  0.80796029  0.21436048    -0.45100
C205        C  0.38544689  0.73067553  0.17162661     0.76500
O206        O  0.42461740  0.80702687  0.28792027    -0.57000
O207        O  0.36309076  0.71989889  0.20354242    -0.47100
O208        O  0.43269486  0.76894804  0.27006552    -0.53400
C209        C  0.35276185  0.73251934  0.33154830     0.86600
O210        O  0.34346085  0.76610194  0.22015377    -0.55300
O211        O  0.40805337  0.75839292  0.18030111    -0.58600
In212      In  0.26437337  0.88688371  0.08403568     1.36900
C213        C  0.29584983  0.85804165  0.11683859     0.79100
O214        O  0.26278063  0.89701891  0.16519848    -0.59400
O215        O  0.22185946  0.88528174  0.12253446    -0.50300
C216        C  0.29526772  0.94564612  0.04670657     0.71700
O217        O  0.30929301  0.93021838  0.05707346    -0.45100
C218        C  0.23246839  0.85321487  0.00490161     0.76500
O219        O  0.30913112  0.88780468  0.11026872    -0.57000
O220        O  0.22069164  0.84692623  0.04824159    -0.47100
O221        O  0.26660793  0.84314917  0.10550961    -0.53400
C222        C  0.23468503  0.89256315  0.16446600     0.86600
O223        O  0.26574222  0.93128880  0.05711857    -0.55300
O224        O  0.26094799  0.87593657  0.00261434    -0.58600
In225      In  0.38267855  0.62873718  0.91615970     1.36900
C226        C  0.44060077  0.65857684  0.87539589     0.79100
O227        O  0.37096071  0.62077695  0.83553770    -0.59400
O228        O  0.34631948  0.63814056  0.88001528    -0.50300
C229        C  0.35788447  0.56934998  0.95088774     0.71700
O230        O  0.38633012  0.59052502  0.95917400    -0.45100
C231        C  0.38327756  0.66094754  0.99661811     0.76500
O232        O  0.42629464  0.62911221  0.88598432    -0.57000
O233        O  0.35835120  0.64445918  0.97193747    -0.47100
O234        O  0.42507898  0.67255700  0.88627190    -0.52200
C235        C  0.35026897  0.62951185  0.83767357     0.86600
O236        O  0.34305440  0.57839421  0.92313634    -0.55300
O237        O  0.40782399  0.66108175  0.97971279    -0.58600
In238      In  0.12703015  0.75701245  0.75058565     1.36900
C239        C  0.06728415  0.72518212  0.78580594     0.79100
O240        O  0.13787400  0.75871510  0.83173514    -0.59400
O241        O  0.16669362  0.79983137  0.78791135    -0.50300
C242        C  0.15572156  0.72598408  0.71514906     0.71700
O243        O  0.12570741  0.71388429  0.71753100    -0.45100
C244        C  0.12334793  0.78799737  0.67104402     0.76500
O245        O  0.08463940  0.71259699  0.78043165    -0.57000
O246        O  0.13020172  0.80043166  0.71339745    -0.47100
O247        O  0.08058436  0.75407543  0.77250560    -0.53400
C248        C  0.16086933  0.78700195  0.83043563     0.86600
O249        O  0.17105152  0.75403228  0.73145272    -0.55300
O250        O  0.11822538  0.75979827  0.66985174    -0.58600
In251      In  0.24745617  0.63202223  0.58806123     1.36900
C252        C  0.21794836  0.66052508  0.62958850     0.79100
O253        O  0.24938661  0.61610482  0.66555450    -0.59400
O254        O  0.29324843  0.64634510  0.62785893    -0.50300
C255        C  0.21453177  0.57360557  0.54981153     0.71700
O256        O  0.20667137  0.59464197  0.54285240    -0.45100
C257        C  0.28117598  0.66453219  0.50795286     0.76500
O258        O  0.20309540  0.63177474  0.61592279    -0.57000
O259        O  0.28758730  0.64626931  0.53261268    -0.47100
O260        O  0.24778388  0.67451152  0.62148456    -0.53400
C261        C  0.27958948  0.63084300  0.66691199     0.86600
O262        O  0.23805212  0.58225455  0.57796306    -0.55300
O263        O  0.25772354  0.66653735  0.52483103    -0.58600
In264      In  0.12826016  0.89210070  0.41555838     1.36900
C265        C  0.15561330  0.95061275  0.45336234     0.79100
O266        O  0.11485505  0.87822850  0.49560580    -0.59400
O267        O  0.13190605  0.85265463  0.45373701    -0.50300
C268        C  0.06952622  0.86203896  0.37753680     0.71700
O269        O  0.08337790  0.89103074  0.38954613    -0.45100
C270        C  0.16563699  0.89771549  0.33788991     0.76500
O271        O  0.12732306  0.93663913  0.43750907    -0.57000
O272        O  0.16885816  0.88852805  0.38011040    -0.47100
O273        O  0.17004622  0.93499239  0.44809880    -0.53400
C274        C  0.12242728  0.85671319  0.49536431     0.86600
O275        O  0.08558421  0.84843154  0.38613325    -0.55300
O276        O  0.14408937  0.90529181  0.33611713    -0.58600
C277        C  0.19719068  0.99173110  0.50803725     0.25100
C278        C  0.17045429  0.98219475  0.47753376    -0.23000
C279        C  0.15776525  0.00273973  0.47161068     0.20000
C280        C  0.17170790  0.53230128  0.49550585     0.25000
C281        C  0.19853802  0.54183343  0.52597032    -0.23000
C282        C  0.21102339  0.52109900  0.53196597     0.19900
F283        F  0.23695145  0.52924661  0.56071159    -0.12900
F284        F  0.20980353  0.97238735  0.51556231    -0.15300
F285        F  0.15900425  0.55160170  0.48847162    -0.15300
F286        F  0.13221949  0.99452598  0.44195718    -0.12900
C287        C  0.15344708  0.67937618  0.67053380     0.25100
C288        C  0.17153443  0.70881253  0.69449230    -0.23000
C289        C  0.20491286  0.72179039  0.69798790     0.20000
C290        C  0.21989207  0.70590568  0.67749064     0.25000
C291        C  0.20186182  0.67670971  0.65287519    -0.23000
C292        C  0.16843007  0.66346801  0.65011864     0.19900
F293        F  0.15016990  0.63539566  0.62668405    -0.12900
F294        F  0.12122832  0.66612119  0.66592642    -0.15300
F295        F  0.25208267  0.71903667  0.68234950    -0.15300
F296        F  0.22320125  0.74986232  0.72143787    -0.12900
C297        C  0.11896976  0.84922128  0.58778729     0.25100
C298        C  0.12112066  0.83835100  0.54029056    -0.23000
C299        C  0.12321440  0.81039030  0.53627332     0.20000
C300        C  0.12332627  0.79377849  0.57875972     0.25000
C301        C  0.12183526  0.80499457  0.62626440    -0.23000
C302        C  0.11940865  0.83275947  0.63033433     0.19900
F303        F  0.11725489  0.84394993  0.67548867    -0.12900
F304        F  0.11728507  0.87629646  0.59325693    -0.15300
F305        F  0.12565787  0.76705488  0.57324216    -0.15300
F306        F  0.12523245  0.79903303  0.49118719    -0.12900
C307        C  0.48640224  0.70758693  0.83703228     0.25100
C308        C  0.47279243  0.67538587  0.85176766    -0.23000
C309        C  0.49016736  0.65942837  0.84325665     0.20000
C310        C  0.02063978  0.67543644  0.82115136     0.25000
C311        C  0.03440715  0.70775715  0.80699224    -0.23000
C312        C  0.01675783  0.72351854  0.81463896     0.19900
F313        F  0.02885120  0.75450713  0.80074588    -0.12900
F314        F  0.47040320  0.72385634  0.84417832    -0.15300
F315        F  0.03663761  0.65918161  0.81386134    -0.15300
F316        F  0.47788212  0.62833412  0.85666714    -0.12900
C317        C  0.34685501  0.63734729  0.74695772     0.25100
C318        C  0.33210835  0.62949949  0.79408186    -0.23000
C319        C  0.29982058  0.62134337  0.79913463     0.20000
C320        C  0.28249843  0.62110174  0.75763388     0.25000
C321        C  0.29751430  0.63000674  0.71059040    -0.23000
C322        C  0.32988123  0.63810333  0.70568824     0.19900
F323        F  0.34505289  0.64631186  0.66082323    -0.12900
F324        F  0.37796412  0.64499604  0.74101791    -0.15300
F325        F  0.25115125  0.61251683  0.76371091    -0.15300
F326        F  0.28478235  0.61275924  0.84409024    -0.12900
C327        C  0.22733039  0.89160241  0.25672653     0.25100
C328        C  0.21806799  0.89536926  0.20898026    -0.23000
C329        C  0.19227755  0.90112440  0.20410340     0.20000
C330        C  0.17590285  0.90284947  0.24605052     0.25000
C331        C  0.18466773  0.89840059  0.29384345    -0.23000
C332        C  0.21065341  0.89284708  0.29871296     0.19900
F333        F  0.21968981  0.88806106  0.34404105    -0.12900
F334        F  0.25177688  0.88547420  0.26279935    -0.15300
F335        F  0.15084174  0.90797968  0.23958820    -0.15300
F336        F  0.18283090  0.90512979  0.15862944    -0.12900
C337        C  0.36047357  0.52640885  0.99998284     0.25100
C338        C  0.34247204  0.53712061  0.97348051    -0.23000
C339        C  0.30898867  0.51739203  0.97115036     0.20000
C340        C  0.29374026  0.48805747  0.99591434     0.25000
C341        C  0.31164716  0.97736899  0.02256881    -0.23000
C342        C  0.34518463  0.99671110  0.02417594     0.19900
F343        F  0.36315261  0.98721993  0.05000124    -0.12900
F344        F  0.39285590  0.54459498  0.00252778    -0.15300
F345        F  0.26136204  0.46990827  0.99305931    -0.15300
F346        F  0.29071532  0.52658761  0.94549046    -0.12900
C347        C  0.16803948  0.79088915  0.92288904     0.25100
C348        C  0.17932702  0.80370328  0.87506900    -0.23000
C349        C  0.20828779  0.83281075  0.87042160     0.20000
C350        C  0.22563079  0.84864605  0.91248954     0.25000
C351        C  0.21433433  0.83589804  0.96033775    -0.23000
C352        C  0.18521998  0.80691211  0.96502305     0.19900
F353        F  0.17329683  0.79389299  0.01041474    -0.12900
F354        F  0.14004952  0.76302483  0.92912926    -0.15300
F355        F  0.25321884  0.87688027  0.90621931    -0.15300
F356        F  0.22004230  0.84603158  0.82506606    -0.12900
C357        C  0.31812408  0.67163316  0.43670947     0.25100
C358        C  0.29950791  0.68193270  0.46293597    -0.23000
C359        C  0.29841782  0.70886524  0.44550534     0.20000
C360        C  0.31582010  0.72535546  0.40304327     0.25000
C361        C  0.33449438  0.71511006  0.37675168    -0.23000
C362        C  0.33538452  0.68799435  0.39405434     0.19900
F363        F  0.35306265  0.67726045  0.36990886    -0.12900
F364        F  0.31912086  0.64524903  0.45166686    -0.15300
F365        F  0.31413082  0.75127052  0.38758311    -0.15300
F366        F  0.28083185  0.71960221  0.46991756    -0.12900
C367        C  0.01831149  0.86002735  0.35225050     0.25100
C368        C  0.03734800  0.84539934  0.35483270    -0.23000
C369        C  0.02543569  0.81469282  0.33497606     0.20000
C370        C  0.49508506  0.79880875  0.31378322     0.25000
C371        C  0.47587544  0.81326331  0.31158755    -0.23000
C372        C  0.48788001  0.84410662  0.33100858     0.19900
F373        F  0.47025106  0.85900432  0.32950501    -0.12900
F374        F  0.02900634  0.88975162  0.37047687    -0.15300
F375        F  0.48457745  0.76912472  0.29548683    -0.15300
F376        F  0.04329829  0.80001671  0.33531013    -0.12900
C377        C  0.29589258  0.80886295  0.14678972     0.25100
C378        C  0.31278165  0.84192569  0.13726613    -0.23000
C379        C  0.34560672  0.85935645  0.14894836     0.20000
C380        C  0.36088924  0.84408935  0.17061529     0.25000
C381        C  0.34371171  0.81109986  0.18104642    -0.23000
C382        C  0.31112519  0.79365935  0.16827227     0.19900
F383        F  0.29371083  0.76170026  0.17664794    -0.12900
F384        F  0.26431371  0.79103102  0.13595495    -0.15300
F385        F  0.39238917  0.86179054  0.18204479    -0.15300
F386        F  0.36296429  0.89125062  0.13988479    -0.12900
C387        C  0.35569484  0.68824873  0.10898989     0.25100
C388        C  0.38496450  0.71249217  0.12740017    -0.23000
C389        C  0.41365692  0.71953279  0.10264712     0.20000
C390        C  0.41309211  0.70270071  0.06026424     0.25000
C391        C  0.38379642  0.67861248  0.04158017    -0.23000
C392        C  0.35509946  0.67152919  0.06643463     0.19900
F393        F  0.32639473  0.64819598  0.04991794    -0.12900
F394        F  0.32749402  0.68119618  0.13145527    -0.15300
F395        F  0.44127539  0.71038212  0.03713157    -0.15300
F396        F  0.44238160  0.74244434  0.11979573    -0.12900
In397      In  0.88545155  0.26390949  0.25004241     1.36900
C398        C  0.94359365  0.29606982  0.28926955     0.79100
O399        O  0.85575374  0.25885738  0.31790025    -0.59400
O400        O  0.86661851  0.22229913  0.30329795    -0.50300
C401        C  0.85914110  0.29472732  0.20571067     0.71700
O402        O  0.88876281  0.30796022  0.21436045    -0.45100
C403        C  0.88544698  0.23067561  0.17162648     0.76500
O404        O  0.92461742  0.30702691  0.28792018    -0.57000
O405        O  0.86309076  0.21989887  0.20354226    -0.47100
O406        O  0.93269477  0.26894798  0.27006571    -0.53400
C407        C  0.85276174  0.23251941  0.33154832     0.86600
O408        O  0.84346077  0.26610198  0.22015392    -0.55300
O409        O  0.90805336  0.25839290  0.18030101    -0.58600
In410      In  0.76437339  0.38688371  0.08403566     1.36900
C411        C  0.79584976  0.35804163  0.11683861     0.79100
O412        O  0.76278062  0.39701898  0.16519846    -0.59400
O413        O  0.72185939  0.38528161  0.12253449    -0.50300
C414        C  0.79526774  0.44564618  0.04670669     0.71700
O415        O  0.80929308  0.43021850  0.05707354    -0.45100
C416        C  0.73246834  0.35321496  0.00490151     0.76500
O417        O  0.80913111  0.38780472  0.11026864    -0.57000
O418        O  0.72069160  0.34692625  0.04824156    -0.47100
O419        O  0.76660792  0.34314916  0.10550964    -0.53400
C420        C  0.73468502  0.39256317  0.16446601     0.86600
O421        O  0.76574219  0.43128872  0.05711860    -0.55300
O422        O  0.76094793  0.37593659  0.00261430    -0.58600
In423      In  0.88267853  0.12873716  0.91615968     1.36900
C424        C  0.94060078  0.15857680  0.87539582     0.79100
O425        O  0.87096077  0.12077701  0.83553764    -0.59400
O426        O  0.84631937  0.13814042  0.88001530    -0.50300
C427        C  0.85788455  0.06935006  0.95088775     0.71700
O428        O  0.88633014  0.09052514  0.95917419    -0.45100
C429        C  0.88327760  0.16094760  0.99661792     0.76500
O430        O  0.92629459  0.12911213  0.88598439    -0.57000
O431        O  0.85835114  0.14445903  0.97193752    -0.47100
O432        O  0.92507897  0.17255695  0.88627182    -0.52200
C433        C  0.85026897  0.12951192  0.83767355     0.86600
O434        O  0.84305448  0.07839416  0.92313615    -0.55300
O435        O  0.90782399  0.16108187  0.97971261    -0.58600
In436      In  0.62703009  0.25701243  0.75058560     1.36900
C437        C  0.56728408  0.22518204  0.78580593     0.79100
O438        O  0.63787391  0.25871516  0.83173523    -0.59400
O439        O  0.66669356  0.29983133  0.78791132    -0.50300
C440        C  0.65572150  0.22598402  0.71514915     0.71700
O441        O  0.62570741  0.21388431  0.71753097    -0.45100
C442        C  0.62334799  0.28799750  0.67104412     0.76500
O443        O  0.58463935  0.21259692  0.78043151    -0.57000
O444        O  0.63020170  0.30043169  0.71339756    -0.47100
O445        O  0.58058425  0.25407532  0.77250545    -0.53400
C446        C  0.66086940  0.28700211  0.83043550     0.86600
O447        O  0.67105149  0.25403230  0.73145276    -0.55300
O448        O  0.61822537  0.25979836  0.66985173    -0.58600
In449      In  0.74745620  0.13202233  0.58806121     1.36900
C450        C  0.71794850  0.16052522  0.62958861     0.79100
O451        O  0.74938662  0.11610478  0.66555448    -0.59400
O452        O  0.79324842  0.14634527  0.62785900    -0.50300
C453        C  0.71453180  0.07360567  0.54981157     0.71700
O454        O  0.70667145  0.09464208  0.54285242    -0.45100
C455        C  0.78117591  0.16453226  0.50795284     0.76500
O456        O  0.70309543  0.13177480  0.61592276    -0.57000
O457        O  0.78758732  0.14626943  0.53261275    -0.47100
O458        O  0.74778387  0.17451161  0.62148459    -0.53400
C459        C  0.77958951  0.13084302  0.66691196     0.86600
O460        O  0.73805220  0.08225462  0.57796291    -0.55300
O461        O  0.75772346  0.16653736  0.52483088    -0.58600
In462      In  0.62826019  0.39210077  0.41555832     1.36900
C463        C  0.65561335  0.45061285  0.45336239     0.79100
O464        O  0.61485504  0.37822854  0.49560574    -0.59400
O465        O  0.63190605  0.35265471  0.45373694    -0.50300
C466        C  0.56952625  0.36203907  0.37753677     0.71700
O467        O  0.58337793  0.39103080  0.38954624    -0.45100
C468        C  0.66563699  0.39771561  0.33788985     0.76500
O469        O  0.62732306  0.43663918  0.43750899    -0.57000
O470        O  0.66885825  0.38852820  0.38011038    -0.47100
O471        O  0.67004623  0.43499253  0.44809896    -0.53400
C472        C  0.62242726  0.35671326  0.49536422     0.86600
O473        O  0.58558424  0.34843158  0.38613308    -0.55300
O474        O  0.64408944  0.40529200  0.33611716    -0.58600
C475        C  0.69719071  0.49173112  0.50803721     0.25100
C476        C  0.67045423  0.48219479  0.47753371    -0.23000
C477        C  0.65776529  0.50273979  0.47161058     0.20000
C478        C  0.67170797  0.03230139  0.49550569     0.25000
C479        C  0.69853797  0.04183342  0.52597029    -0.23000
C480        C  0.71102337  0.02109904  0.53196600     0.19900
F481        F  0.73695139  0.02924659  0.56071159    -0.12900
F482        F  0.70980353  0.47238734  0.51556228    -0.15300
F483        F  0.65900437  0.05160180  0.48847136    -0.15300
F484        F  0.63221959  0.49452608  0.44195688    -0.12900
C485        C  0.65344705  0.17937622  0.67053378     0.25100
C486        C  0.67153448  0.20881252  0.69449249    -0.23000
C487        C  0.70491279  0.22179035  0.69798796     0.20000
C488        C  0.71989215  0.20590574  0.67749073     0.25000
C489        C  0.70186173  0.17670961  0.65287536    -0.23000
C490        C  0.66843014  0.16346812  0.65011874     0.19900
F491        F  0.65016988  0.13539573  0.62668415    -0.12900
F492        F  0.62122833  0.16612128  0.66592636    -0.15300
F493        F  0.75208266  0.21903665  0.68234963    -0.15300
F494        F  0.72320121  0.24986223  0.72143806    -0.12900
C495        C  0.61896980  0.34922137  0.58778724     0.25100
C496        C  0.62112069  0.33835107  0.54029049    -0.23000
C497        C  0.62321436  0.31039029  0.53627332     0.20000
C498        C  0.62332626  0.29377853  0.57875981     0.25000
C499        C  0.62183533  0.30499468  0.62626441    -0.23000
C500        C  0.61940858  0.33275951  0.63033433     0.19900
F501        F  0.61725482  0.34394996  0.67548861    -0.12900
F502        F  0.61728512  0.37629654  0.59325682    -0.15300
F503        F  0.62565784  0.26705492  0.57324228    -0.15300
F504        F  0.62523243  0.29903302  0.49118726    -0.12900
C505        C  0.98640228  0.20758695  0.83703250     0.25100
C506        C  0.97279230  0.17538575  0.85176770    -0.23000
C507        C  0.99016735  0.15942831  0.84325660     0.20000
C508        C  0.52063971  0.17543636  0.82115125     0.25000
C509        C  0.53440712  0.20775705  0.80699220    -0.23000
C510        C  0.51675775  0.22351845  0.81463884     0.19900
F511        F  0.52885117  0.25450706  0.80074585    -0.12900
F512        F  0.97040322  0.22385634  0.84417859    -0.15300
F513        F  0.53663760  0.15918153  0.81386131    -0.15300
F514        F  0.97788202  0.12833400  0.85666689    -0.12900
C515        C  0.84685497  0.13734729  0.74695770     0.25100
C516        C  0.83210840  0.12949954  0.79408180    -0.23000
C517        C  0.79982058  0.12134332  0.79913461     0.20000
C518        C  0.78249848  0.12110169  0.75763383     0.25000
C519        C  0.79751430  0.13000677  0.71059038    -0.23000
C520        C  0.82988128  0.13810345  0.70568823     0.19900
F521        F  0.84505291  0.14631199  0.66082322    -0.12900
F522        F  0.87796414  0.14499620  0.74101791    -0.15300
F523        F  0.75115130  0.11251679  0.76371089    -0.15300
F524        F  0.78478231  0.11275913  0.84409019    -0.12900
C525        C  0.72733038  0.39160242  0.25672655     0.25100
C526        C  0.71806794  0.39536924  0.20898025    -0.23000
C527        C  0.69227755  0.40112442  0.20410341     0.20000
C528        C  0.67590287  0.40284958  0.24605049     0.25000
C529        C  0.68466769  0.39840057  0.29384344    -0.23000
C530        C  0.71065336  0.39284709  0.29871294     0.19900
F531        F  0.71968974  0.38806102  0.34404105    -0.12900
F532        F  0.75177692  0.38547431  0.26279936    -0.15300
F533        F  0.65084181  0.40797983  0.23958818    -0.15300
F534        F  0.68283096  0.40512990  0.15862944    -0.12900
C535        C  0.86047362  0.02640892  0.99998298     0.25100
C536        C  0.84247209  0.03712061  0.97348052    -0.23000
C537        C  0.80898870  0.01739200  0.97115006     0.20000
C538        C  0.79374025  0.98805733  0.99591398     0.25000
C539        C  0.81164714  0.47736901  0.02256885    -0.23000
C540        C  0.84518462  0.49671120  0.02417598     0.19900
F541        F  0.86315263  0.48722005  0.05000130    -0.12900
F542        F  0.89285591  0.04459515  0.00252831    -0.15300
F543        F  0.76136199  0.96990804  0.99305870    -0.15300
F544        F  0.79071540  0.02658753  0.94548996    -0.12900
C545        C  0.66803943  0.29088926  0.92288903     0.25100
C546        C  0.67932693  0.30370327  0.87506905    -0.23000
C547        C  0.70828778  0.33281084  0.87042158     0.20000
C548        C  0.72563073  0.34864610  0.91248953     0.25000
C549        C  0.71433431  0.33589807  0.96033776    -0.23000
C550        C  0.68521995  0.30691210  0.96502306     0.19900
F551        F  0.67329680  0.29389302  0.01041475    -0.12900
F552        F  0.64004952  0.26302481  0.92912926    -0.15300
F553        F  0.75321885  0.37688026  0.90621929    -0.15300
F554        F  0.72004223  0.34603158  0.82506611    -0.12900
C555        C  0.81812396  0.17163317  0.43670944     0.25100
C556        C  0.79950788  0.18193272  0.46293594    -0.23000
C557        C  0.79841772  0.20886519  0.44550532     0.20000
C558        C  0.81581995  0.22535541  0.40304321     0.25000
C559        C  0.83449426  0.21511004  0.37675171    -0.23000
C560        C  0.83538452  0.18799448  0.39405444     0.19900
F561        F  0.85306266  0.17726059  0.36990898    -0.12900
F562        F  0.81912083  0.14524908  0.45166684    -0.15300
F563        F  0.81413064  0.25127044  0.38758307    -0.15300
F564        F  0.78083166  0.21960209  0.46991743    -0.12900
C565        C  0.51831151  0.36002737  0.35225051     0.25100
C566        C  0.53734805  0.34539936  0.35483271    -0.23000
C567        C  0.52543577  0.31469285  0.33497610     0.20000
C568        C  0.99508494  0.29880868  0.31378339     0.25000
C569        C  0.97587542  0.31326334  0.31158755    -0.23000
C570        C  0.98787997  0.34410660  0.33100855     0.19900
F571        F  0.97025102  0.35900434  0.32950492    -0.12900
F572        F  0.52900631  0.38975159  0.37047693    -0.15300
F573        F  0.98457726  0.26912460  0.29548712    -0.15300
F574        F  0.54329840  0.30001675  0.33531003    -0.12900
C575        C  0.79589251  0.30886292  0.14678972     0.25100
C576        C  0.81278165  0.34192576  0.13726619    -0.23000
C577        C  0.84560669  0.35935644  0.14894836     0.20000
C578        C  0.86088921  0.34408939  0.17061530     0.25000
C579        C  0.84371167  0.31109990  0.18104662    -0.23000
C580        C  0.81112511  0.29365938  0.16827253     0.19900
F581        F  0.79371073  0.26170030  0.17664838    -0.12900
F582        F  0.76431367  0.29103107  0.13595499    -0.15300
F583        F  0.89238914  0.36179056  0.18204479    -0.15300
F584        F  0.86296427  0.39125064  0.13988474    -0.12900
C585        C  0.85569486  0.18824882  0.10898976     0.25100
C586        C  0.88496449  0.21249216  0.12740006    -0.23000
C587        C  0.91365698  0.21953272  0.10264721     0.20000
C588        C  0.91309208  0.20270065  0.06026418     0.25000
C589        C  0.88379640  0.17861255  0.04158006    -0.23000
C590        C  0.85509947  0.17152917  0.06643456     0.19900
F591        F  0.82639477  0.14819618  0.04991776    -0.12900
F592        F  0.82749404  0.18119626  0.13145515    -0.15300
F593        F  0.94127530  0.21038204  0.03713155    -0.15300
F594        F  0.94238164  0.24244417  0.11979593    -0.12900
In595      In  0.88545151  0.76390943  0.25004242     1.36900
C596        C  0.94359363  0.79606979  0.28926961     0.79100
O597        O  0.85575374  0.75885731  0.31790021    -0.59400
O598        O  0.86661849  0.72229904  0.30329798    -0.50300
C599        C  0.85914106  0.79472722  0.20571061     0.71700
O600        O  0.88876280  0.80796015  0.21436039    -0.45100
C601        C  0.88544677  0.73067537  0.17162653     0.76500
O602        O  0.92461732  0.80702679  0.28792027    -0.57000
O603        O  0.86309071  0.71989878  0.20354230    -0.47100
O604        O  0.93269482  0.76894798  0.27006560    -0.53400
C605        C  0.85276176  0.73251931  0.33154837     0.86600
O606        O  0.84346074  0.76610192  0.22015398    -0.55300
O607        O  0.90805331  0.75839281  0.18030106    -0.58600
In608      In  0.76437342  0.88688375  0.08403569     1.36900
C609        C  0.79584981  0.85804169  0.11683864     0.79100
O610        O  0.76278067  0.89701904  0.16519846    -0.59400
O611        O  0.72185944  0.88528167  0.12253450    -0.50300
C612        C  0.79526772  0.94564617  0.04670659     0.71700
O613        O  0.80929306  0.93021852  0.05707358    -0.45100
C614        C  0.73246846  0.85321494  0.00490151     0.76500
O615        O  0.80913114  0.88780474  0.11026866    -0.57000
O616        O  0.72069166  0.84692627  0.04824166    -0.47100
O617        O  0.76660793  0.84314919  0.10550967    -0.53400
C618        C  0.73468507  0.89256323  0.16446602     0.86600
O619        O  0.76574218  0.93128876  0.05711843    -0.55300
O620        O  0.76094798  0.87593659  0.00261435    -0.58600
In621      In  0.88267846  0.62873718  0.91615968     1.36900
C622        C  0.94060071  0.65857688  0.87539587     0.79100
O623        O  0.87096075  0.62077709  0.83553767    -0.59400
O624        O  0.84631930  0.63814049  0.88001523    -0.50300
C625        C  0.85788450  0.56935002  0.95088771     0.71700
O626        O  0.88633008  0.59052511  0.95917404    -0.45100
C627        C  0.88327764  0.66094763  0.99661799     0.76500
O628        O  0.92629452  0.62911219  0.88598441    -0.57000
O629        O  0.85835106  0.64445907  0.97193755    -0.47100
O630        O  0.92507894  0.67255703  0.88627179    -0.52200
C631        C  0.85026892  0.62951194  0.83767353     0.86600
O632        O  0.84305435  0.57839419  0.92313621    -0.55300
O633        O  0.90782392  0.66108187  0.97971255    -0.58600
In634      In  0.62703015  0.75701245  0.75058568     1.36900
C635        C  0.56728414  0.72518211  0.78580587     0.79100
O636        O  0.63787395  0.75871518  0.83173525    -0.59400
O637        O  0.66669365  0.79983135  0.78791130    -0.50300
C638        C  0.65572155  0.72598408  0.71514914     0.71700
O639        O  0.62570741  0.71388431  0.71753102    -0.45100
C640        C  0.62334792  0.78799738  0.67104400     0.76500
O641        O  0.58463939  0.71259698  0.78043159    -0.57000
O642        O  0.63020171  0.80043168  0.71339748    -0.47100
O643        O  0.58058433  0.75407540  0.77250553    -0.53400
C644        C  0.66086922  0.78700188  0.83043575     0.86600
O645        O  0.67105151  0.75403229  0.73145276    -0.55300
O646        O  0.61822538  0.75979832  0.66985176    -0.58600
In647      In  0.74745616  0.63202223  0.58806122     1.36900
C648        C  0.71794847  0.66052515  0.62958856     0.79100
O649        O  0.74938660  0.61610482  0.66555450    -0.59400
O650        O  0.79324842  0.64634510  0.62785891    -0.50300
C651        C  0.71453171  0.57360555  0.54981146     0.71700
O652        O  0.70667136  0.59464195  0.54285239    -0.45100
C653        C  0.78117592  0.66453221  0.50795279     0.76500
O654        O  0.70309541  0.63177475  0.61592277    -0.57000
O655        O  0.78758728  0.64626931  0.53261268    -0.47100
O656        O  0.74778389  0.67451153  0.62148455    -0.53400
C657        C  0.77958953  0.63084304  0.66691195     0.86600
O658        O  0.73805210  0.58225451  0.57796301    -0.55300
O659        O  0.75772351  0.66653735  0.52483101    -0.58600
In660      In  0.62826018  0.89210071  0.41555836     1.36900
C661        C  0.65561330  0.95061274  0.45336235     0.79100
O662        O  0.61485506  0.87822852  0.49560578    -0.59400
O663        O  0.63190606  0.85265464  0.45373703    -0.50300
C664        C  0.56952624  0.86203899  0.37753676     0.71700
O665        O  0.58337794  0.89103075  0.38954622    -0.45100
C666        C  0.66563699  0.89771561  0.33788983     0.76500
O667        O  0.62732303  0.93663914  0.43750906    -0.57000
O668        O  0.66885815  0.88852801  0.38011031    -0.47100
O669        O  0.67004620  0.93499246  0.44809884    -0.53400
C670        C  0.62242727  0.85671321  0.49536437     0.86600
O671        O  0.58558421  0.84843154  0.38613314    -0.55300
O672        O  0.64408947  0.90529200  0.33611721    -0.58600
C673        C  0.69719066  0.99173109  0.50803722     0.25100
C674        C  0.67045423  0.98219479  0.47753378    -0.23000
C675        C  0.65776528  0.00273978  0.47161052     0.20000
C676        C  0.67170788  0.53230130  0.49550567     0.25000
C677        C  0.69853799  0.54183340  0.52597032    -0.23000
C678        C  0.71102329  0.52109893  0.53196601     0.19900
F679        F  0.73695136  0.52924658  0.56071165    -0.12900
F680        F  0.70980349  0.97238735  0.51556233    -0.15300
F681        F  0.65900431  0.55160176  0.48847139    -0.15300
F682        F  0.63221961  0.99452612  0.44195688    -0.12900
C683        C  0.65344706  0.67937618  0.67053384     0.25100
C684        C  0.67153444  0.70881250  0.69449244    -0.23000
C685        C  0.70491280  0.72179032  0.69798804     0.20000
C686        C  0.71989211  0.70590568  0.67749069     0.25000
C687        C  0.70186179  0.67670968  0.65287527    -0.23000
C688        C  0.66843012  0.66346804  0.65011869     0.19900
F689        F  0.65016991  0.63539570  0.62668407    -0.12900
F690        F  0.62122832  0.66612122  0.66592642    -0.15300
F691        F  0.75208266  0.71903666  0.68234960    -0.15300
F692        F  0.72320120  0.74986220  0.72143815    -0.12900
C693        C  0.61896968  0.84922129  0.58778732     0.25100
C694        C  0.62112067  0.83835102  0.54029052    -0.23000
C695        C  0.62321442  0.81039035  0.53627336     0.20000
C696        C  0.62332628  0.79377852  0.57875970     0.25000
C697        C  0.62183526  0.80499461  0.62626447    -0.23000
C698        C  0.61940858  0.83275947  0.63033432     0.19900
F699        F  0.61725473  0.84394988  0.67548869    -0.12900
F700        F  0.61728491  0.87629638  0.59325691    -0.15300
F701        F  0.62565787  0.76705492  0.57324218    -0.15300
F702        F  0.62523245  0.79903304  0.49118724    -0.12900
C703        C  0.98640224  0.70758697  0.83703236     0.25100
C704        C  0.97279238  0.67538583  0.85176767    -0.23000
C705        C  0.99016732  0.65942838  0.84325661     0.20000
C706        C  0.52063977  0.67543643  0.82115127     0.25000
C707        C  0.53440716  0.70775713  0.80699225    -0.23000
C708        C  0.51675782  0.72351853  0.81463886     0.19900
F709        F  0.52885121  0.75450713  0.80074587    -0.12900
F710        F  0.97040318  0.72385636  0.84417832    -0.15300
F711        F  0.53663763  0.65918158  0.81386133    -0.15300
F712        F  0.97788201  0.62833406  0.85666691    -0.12900
C713        C  0.84685499  0.63734737  0.74695772     0.25100
C714        C  0.83210838  0.62949954  0.79408180    -0.23000
C715        C  0.79982057  0.62134337  0.79913460     0.20000
C716        C  0.78249850  0.62110173  0.75763383     0.25000
C717        C  0.79751428  0.63000674  0.71059040    -0.23000
C718        C  0.82988128  0.63810342  0.70568822     0.19900
F719        F  0.84505294  0.64631204  0.66082327    -0.12900
F720        F  0.87796416  0.64499622  0.74101794    -0.15300
F721        F  0.75115131  0.61251685  0.76371089    -0.15300
F722        F  0.78478234  0.61275924  0.84409020    -0.12900
C723        C  0.72733046  0.89160251  0.25672657     0.25100
C724        C  0.71806799  0.89536931  0.20898026    -0.23000
C725        C  0.69227756  0.90112440  0.20410342     0.20000
C726        C  0.67590284  0.90284953  0.24605049     0.25000
C727        C  0.68466773  0.89840058  0.29384346    -0.23000
C728        C  0.71065340  0.89284715  0.29871294     0.19900
F729        F  0.71968979  0.88806108  0.34404107    -0.12900
F730        F  0.75177698  0.88547438  0.26279937    -0.15300
F731        F  0.65084174  0.90797970  0.23958818    -0.15300
F732        F  0.68283089  0.90512978  0.15862944    -0.12900
C733        C  0.86047363  0.52640897  0.99998294     0.25100
C734        C  0.84247207  0.53712064  0.97348048    -0.23000
C735        C  0.80898875  0.51739203  0.97115031     0.20000
C736        C  0.79374032  0.48805740  0.99591408     0.25000
C737        C  0.81164714  0.97736902  0.02256877    -0.23000
C738        C  0.84518462  0.99671113  0.02417609     0.19900
F739        F  0.86315264  0.98722004  0.05000156    -0.12900
F740        F  0.89285592  0.54459519  0.00252823    -0.15300
F741        F  0.76136205  0.46990817  0.99305899    -0.15300
F742        F  0.79071541  0.52658751  0.94549024    -0.12900
C743        C  0.66803944  0.79088911  0.92288913     0.25100
C744        C  0.67932704  0.80370334  0.87506889    -0.23000
C745        C  0.70828775  0.83281071  0.87042166     0.20000
C746        C  0.72563081  0.84864610  0.91248949     0.25000
C747        C  0.71433427  0.83589797  0.96033781    -0.23000
C748        C  0.68522001  0.80691217  0.96502302     0.19900
F749        F  0.67329684  0.79389301  0.01041479    -0.12900
F750        F  0.64004954  0.76302484  0.92912933    -0.15300
F751        F  0.75321882  0.87688026  0.90621931    -0.15300
F752        F  0.72004230  0.84603158  0.82506606    -0.12900
C753        C  0.81812402  0.67163319  0.43670944     0.25100
C754        C  0.79950791  0.68193270  0.46293600    -0.23000
C755        C  0.79841783  0.70886526  0.44550540     0.20000
C756        C  0.81581997  0.72535538  0.40304325     0.25000
C757        C  0.83449434  0.71511009  0.37675173    -0.23000
C758        C  0.83538449  0.68799440  0.39405441     0.19900
F759        F  0.85306261  0.67726051  0.36990890    -0.12900
F760        F  0.81912085  0.64524906  0.45166685    -0.15300
F761        F  0.81413072  0.75127046  0.38758312    -0.15300
F762        F  0.78083180  0.71960218  0.46991757    -0.12900
C763        C  0.51831154  0.86002736  0.35225050     0.25100
C764        C  0.53734803  0.84539937  0.35483265    -0.23000
C765        C  0.52543580  0.81469282  0.33497609     0.20000
C766        C  0.99508492  0.79880867  0.31378342     0.25000
C767        C  0.97587539  0.81326331  0.31158757    -0.23000
C768        C  0.98787998  0.84410662  0.33100856     0.19900
F769        F  0.97025103  0.85900437  0.32950501    -0.12900
F770        F  0.52900634  0.88975160  0.37047689    -0.15300
F771        F  0.98457727  0.76912459  0.29548708    -0.15300
F772        F  0.54329844  0.80001677  0.33531000    -0.12900
C773        C  0.79589253  0.80886299  0.14678982     0.25100
C774        C  0.81278166  0.84192576  0.13726618    -0.23000
C775        C  0.84560676  0.85935648  0.14894826     0.20000
C776        C  0.86088927  0.84408938  0.17061522     0.25000
C777        C  0.84371171  0.81109989  0.18104648    -0.23000
C778        C  0.81112511  0.79365940  0.16827253     0.19900
F779        F  0.79371074  0.76170034  0.17664839    -0.12900
F780        F  0.76431361  0.79103111  0.13595524    -0.15300
F781        F  0.89238926  0.86179053  0.18204448    -0.15300
F782        F  0.86296431  0.89125067  0.13988472    -0.12900
C783        C  0.85569476  0.68824869  0.10898977     0.25100
C784        C  0.88496452  0.71249213  0.12740007    -0.23000
C785        C  0.91365686  0.71953266  0.10264717     0.20000
C786        C  0.91309214  0.70270069  0.06026422     0.25000
C787        C  0.88379633  0.67861244  0.04158008    -0.23000
C788        C  0.85509952  0.67152923  0.06643453     0.19900
F789        F  0.82639475  0.64819615  0.04991770    -0.12900
F790        F  0.82749399  0.68119614  0.13145518    -0.15300
F791        F  0.94127533  0.71038200  0.03713171    -0.15300
F792        F  0.94238160  0.74244423  0.11979583    -0.12900
loop_ 
_geom_bond_atom_site_label_1 
_geom_bond_atom_site_label_2 
_geom_bond_distance 
_geom_bond_site_symmetry_2 
_ccdc_geom_bond_type 
In1           O3   2.246       .  S
In1           O4   2.250       .  S
In1          O12   2.232       .  S
In1           O6   2.262       .  S
In1           O8   2.255       .  S
In1           O9   2.241       .  S
In1          O10   2.233       .  S
In1          O13   2.245       .  S
C2            O8   1.262       .  A
C2           O10   1.260       .  A
C2          C173   1.484       .  S
O3           C11   1.260       .  A
O4           C11   1.260       .  A
C5           O12   1.259       .  A
C5            O6   1.263       .  A
C5          C183   1.485       .  S
C7            O9   1.260       .  A
C7           O13   1.261       .  A
C7          C190   1.477       .  S
C11         C163   1.483       .  S
In14         O16   2.253       .  S
In14         O17   2.249       .  S
In14         O25   2.230       .  S
In14         O19   2.244       .  S
In14         O21   2.251       .  S
In14         O22   2.257       .  S
In14         O23   2.241       .  S
In14         O26   2.249       .  S
C15          O21   1.260       .  A
C15          O23   1.262       .  A
C15         C180   1.485       .  S
O16          C24   1.258       .  A
O17          C24   1.259       .  A
C18          O25   1.260       .  A
C18          O19   1.260       .  A
C18         C143   1.474       .  S
C20          O22   1.262       .  A
C20          O26   1.260       .  A
C20         C153   1.486   1_554  S
C24         C130   1.479       .  S
In27         O29   2.238       .  S
In27         O30   2.243       .  S
In27         O38   2.227       .  S
In27         O32   2.256       .  S
In27         O34   2.233       .  S
In27         O35   2.250       .  S
In27         O36   2.225       .  S
In27         O39   2.242       .  S
C28          O34   1.265       .  A
C28          O36   1.263       .  A
C28         C110   1.479       .  S
O29          C37   1.260       .  A
O30          C37   1.261       .  A
C31          O38   1.255       .  A
C31          O32   1.259       .  A
C31         C140   1.476       .  S
C33          O35   1.259       .  A
C33          O39   1.258       .  A
C33         C193   1.478   1_556  S
C37         C120   1.471       .  S
In40         O42   2.247       .  S
In40         O43   2.250       .  S
In40         O51   2.246       .  S
In40         O45   2.240       .  S
In40         O47   2.239       .  S
In40         O48   2.255       .  S
In40         O49   2.239       .  S
In40         O52   2.238       .  S
C41          O47   1.260       .  A
C41          O49   1.260       .  A
C41         C113   1.480       .  S
O42          C50   1.260       .  A
O43          C50   1.262       .  A
C44          O51   1.261       .  A
C44          O45   1.260       .  A
C44          C90   1.482       .  S
C46          O48   1.261       .  A
C46          O52   1.258       .  A
C46         C103   1.480       .  S
C50         C150   1.485       .  S
In53         O55   2.242       .  S
In53         O56   2.240       .  S
In53         O64   2.232       .  S
In53         O58   2.267       .  S
In53         O60   2.248       .  S
In53         O61   2.246       .  S
In53         O62   2.237       .  S
In53         O65   2.252       .  S
C54          O60   1.264       .  A
C54          O62   1.261       .  A
C54          C93   1.482       .  S
O55          C63   1.261       .  A
O56          C63   1.262       .  A
C57          O64   1.257       .  A
C57          O58   1.261       .  A
C57          C83   1.485       .  S
C59          O61   1.259       .  A
C59          O65   1.259       .  A
C59         C160   1.480       .  S
C63         C123   1.478       .  S
In66         O68   2.248       .  S
In66         O69   2.244       .  S
In66         O77   2.244       .  S
In66         O71   2.252       .  S
In66         O73   2.254       .  S
In66         O74   2.247       .  S
In66         O75   2.239       .  S
In66         O78   2.247       .  S
C67          O73   1.261       .  A
C67          O75   1.261       .  A
C67          C80   1.482       .  S
O68          C76   1.260       .  A
O69          C76   1.259       .  A
C70          O77   1.260       .  A
C70          O71   1.261       .  A
C70         C170   1.484       .  S
C72          O74   1.259       .  A
C72          O78   1.259       .  A
C72         C133   1.482       .  S
C76         C100   1.480       .  S
C79          C80   1.406       .  A
C79         C282   1.396       .  A
C79          F86   1.358       .  S
C80          C81   1.408       .  A
C81         C280   1.403       .  A
C81          F88   1.358       .  S
C82          C83   1.409       .  A
C82         C279   1.403       .  A
C82          F87   1.358       .  S
C83          C84   1.409       .  A
C84         C277   1.396   1_545  A
C84          F85   1.358       .  S
C89          C90   1.409       .  A
C89          C94   1.399       .  A
C89          F96   1.358       .  S
C90          C91   1.407       .  A
C91          C92   1.399       .  A
C91          F98   1.358       .  S
C92          C93   1.409       .  A
C92          F97   1.358       .  S
C93          C94   1.407       .  A
C94          F95   1.358       .  S
C99         C100   1.408       .  A
C99         C104   1.399       .  A
C99         F106   1.358       .  S
C100        C101   1.407       .  A
C101        C102   1.397       .  A
C101        F108   1.358       .  S
C102        C103   1.408       .  A
C102        F107   1.358       .  S
C103        C104   1.407       .  A
C104        F105   1.358       .  S
C109        C110   1.408       .  A
C109        C510   1.396       .  A
C109        F116   1.358       .  S
C110        C111   1.407       .  A
C111        C508   1.397       .  A
C111        F118   1.358       .  S
C112        C113   1.408       .  A
C112        C507   1.397   1_455  A
C112        F117   1.358       .  S
C113        C114   1.407       .  A
C114        C505   1.396   1_455  A
C114        F115   1.358       .  S
C119        C120   1.404       .  A
C119        C124   1.397       .  A
C119        F126   1.358       .  S
C120        C121   1.404       .  A
C121        C122   1.398       .  A
C121        F128   1.358       .  S
C122        C123   1.408       .  A
C122        F127   1.358       .  S
C123        C124   1.408       .  A
C124        F125   1.358       .  S
C129        C130   1.407       .  A
C129        C134   1.399       .  A
C129        F136   1.358       .  S
C130        C131   1.406       .  A
C131        C132   1.398       .  A
C131        F138   1.358       .  S
C132        C133   1.408       .  A
C132        F137   1.358       .  S
C133        C134   1.409       .  A
C134        F135   1.358       .  S
C139        C140   1.407       .  A
C139        C342   1.399   1_546  A
C139        F146   1.358   1_556  S
C140        C141   1.408       .  A
C141        C142   1.393   1_545  A
C141        F148   1.358       .  S
C142        C341   1.405   1_556  A
C142        F147   1.358       .  S
C143        C144   1.407       .  A
C143        C340   1.405   1_554  A
C144        C337   1.399   1_554  A
C144        F145   1.358       .  S
C149        C150   1.409       .  A
C149        C154   1.401       .  A
C149        F156   1.358       .  S
C150        C151   1.407       .  A
C151        C152   1.400       .  A
C151        F158   1.358       .  S
C152        C153   1.409       .  A
C152        F157   1.358       .  S
C153        C154   1.408       .  A
C154        F155   1.358   1_556  S
C159        C160   1.407       .  A
C159        C164   1.399       .  A
C159        F166   1.358       .  S
C160        C161   1.406       .  A
C161        C162   1.399       .  A
C161        F168   1.358       .  S
C162        C163   1.409       .  A
C162        F167   1.358       .  S
C163        C164   1.409       .  A
C164        F165   1.358       .  S
C169        C170   1.409       .  A
C169        C570   1.401   1_455  A
C169        F176   1.358       .  S
C170        C171   1.408       .  A
C171        C568   1.397   1_455  A
C171        F178   1.358       .  S
C172        C173   1.409       .  A
C172        C567   1.397       .  A
C172        F177   1.358       .  S
C173        C174   1.408       .  A
C174        C565   1.401       .  A
C174        F175   1.358       .  S
C179        C180   1.407       .  A
C179        C184   1.396       .  A
C179        F186   1.358       .  S
C180        C181   1.411       .  A
C181        C182   1.403       .  A
C181        F188   1.358       .  S
C182        C183   1.408       .  A
C182        F187   1.358       .  S
C183        C184   1.409       .  A
C184        F185   1.358       .  S
C189        C190   1.407       .  A
C189        C194   1.398       .  A
C189        F196   1.358       .  S
C190        C191   1.406       .  A
C191        C192   1.398       .  A
C191        F198   1.358       .  S
C192        C193   1.408       .  A
C192        F197   1.358       .  S
C193        C194   1.407       .  A
C194        F195   1.358       .  S
In199       O201   2.246       .  S
In199       O202   2.250       .  S
In199       O210   2.232       .  S
In199       O204   2.262       .  S
In199       O206   2.255       .  S
In199       O207   2.241       .  S
In199       O208   2.233       .  S
In199       O211   2.245       .  S
C200        O206   1.262       .  A
C200        O208   1.260       .  A
C200        C371   1.484       .  S
O201        C209   1.260       .  A
O202        C209   1.260       .  A
C203        O210   1.259       .  A
C203        O204   1.263       .  A
C203        C381   1.485       .  S
C205        O207   1.260       .  A
C205        O211   1.261       .  A
C205        C388   1.477       .  S
C209        C361   1.483       .  S
In212       O214   2.253       .  S
In212       O215   2.249       .  S
In212       O223   2.230       .  S
In212       O217   2.244       .  S
In212       O219   2.251       .  S
In212       O220   2.257       .  S
In212       O221   2.241       .  S
In212       O224   2.249       .  S
C213        O219   1.260       .  A
C213        O221   1.262       .  A
C213        C378   1.485       .  S
O214        C222   1.258       .  A
O215        C222   1.259       .  A
C216        O223   1.260       .  A
C216        O217   1.260       .  A
C216        C341   1.474       .  S
C218        O220   1.262       .  A
C218        O224   1.260       .  A
C218        C351   1.486   1_554  S
C222        C328   1.479       .  S
In225       O227   2.238       .  S
In225       O228   2.243       .  S
In225       O236   2.227       .  S
In225       O230   2.256       .  S
In225       O232   2.233       .  S
In225       O233   2.250       .  S
In225       O234   2.225       .  S
In225       O237   2.242       .  S
C226        O232   1.265       .  A
C226        O234   1.263       .  A
C226        C308   1.479       .  S
O227        C235   1.260       .  A
O228        C235   1.261       .  A
C229        O236   1.255       .  A
C229        O230   1.259       .  A
C229        C338   1.476       .  S
C231        O233   1.259       .  A
C231        O237   1.258       .  A
C231        C391   1.478   1_556  S
C235        C318   1.471       .  S
In238       O240   2.247       .  S
In238       O241   2.250       .  S
In238       O249   2.246       .  S
In238       O243   2.240       .  S
In238       O245   2.239       .  S
In238       O246   2.255       .  S
In238       O247   2.239       .  S
In238       O250   2.238       .  S
C239        O245   1.260       .  A
C239        O247   1.260       .  A
C239        C311   1.480       .  S
O240        C248   1.260       .  A
O241        C248   1.262       .  A
C242        O249   1.261       .  A
C242        O243   1.260       .  A
C242        C288   1.482       .  S
C244        O246   1.261       .  A
C244        O250   1.258       .  A
C244        C301   1.480       .  S
C248        C348   1.485       .  S
In251       O253   2.242       .  S
In251       O254   2.240       .  S
In251       O262   2.232       .  S
In251       O256   2.267       .  S
In251       O258   2.248       .  S
In251       O259   2.246       .  S
In251       O260   2.237       .  S
In251       O263   2.252       .  S
C252        O258   1.264       .  A
C252        O260   1.261       .  A
C252        C291   1.482       .  S
O253        C261   1.261       .  A
O254        C261   1.262       .  A
C255        O262   1.257       .  A
C255        O256   1.261       .  A
C255        C281   1.485       .  S
C257        O259   1.259       .  A
C257        O263   1.259       .  A
C257        C358   1.480       .  S
C261        C321   1.478       .  S
In264       O266   2.248       .  S
In264       O267   2.244       .  S
In264       O275   2.244       .  S
In264       O269   2.252       .  S
In264       O271   2.254       .  S
In264       O272   2.247       .  S
In264       O273   2.239       .  S
In264       O276   2.247       .  S
C265        O271   1.261       .  A
C265        O273   1.261       .  A
C265        C278   1.482       .  S
O266        C274   1.260       .  A
O267        C274   1.259       .  A
C268        O275   1.260       .  A
C268        O269   1.261       .  A
C268        C368   1.484       .  S
C270        O272   1.259       .  A
C270        O276   1.259       .  A
C270        C331   1.482       .  S
C274        C298   1.480       .  S
C277        C278   1.406       .  A
C277        F284   1.358       .  S
C278        C279   1.408   1_565  A
C279        F286   1.358   1_545  S
C280        C281   1.409       .  A
C280        F285   1.358       .  S
C281        C282   1.409       .  A
C282        F283   1.358       .  S
C287        C288   1.409       .  A
C287        C292   1.399       .  A
C287        F294   1.358       .  S
C288        C289   1.407       .  A
C289        C290   1.399       .  A
C289        F296   1.358       .  S
C290        C291   1.409       .  A
C290        F295   1.358       .  S
C291        C292   1.407       .  A
C292        F293   1.358       .  S
C297        C298   1.408       .  A
C297        C302   1.399       .  A
C297        F304   1.358       .  S
C298        C299   1.407       .  A
C299        C300   1.397       .  A
C299        F306   1.358       .  S
C300        C301   1.408       .  A
C300        F305   1.358       .  S
C301        C302   1.407       .  A
C302        F303   1.358       .  S
C307        C308   1.408       .  A
C307        C708   1.396       .  A
C307        F314   1.358       .  S
C308        C309   1.407       .  A
C309        C706   1.397       .  A
C309        F316   1.358       .  S
C310        C705   1.397   1_455  A
C310        C311   1.408       .  A
C310        F315   1.358       .  S
C311        C312   1.407       .  A
C312        C703   1.396   1_455  A
C312        F313   1.358       .  S
C317        C318   1.404       .  A
C317        C322   1.397       .  A
C317        F324   1.358       .  S
C318        C319   1.404       .  A
C319        C320   1.398       .  A
C319        F326   1.358       .  S
C320        C321   1.408       .  A
C320        F325   1.358       .  S
C321        C322   1.408       .  A
C322        F323   1.358       .  S
C327        C328   1.407       .  A
C327        C332   1.399       .  A
C327        F334   1.358       .  S
C328        C329   1.406       .  A
C329        C330   1.398       .  A
C329        F336   1.358       .  S
C330        C331   1.408       .  A
C330        F335   1.358       .  S
C331        C332   1.409       .  A
C332        F333   1.358       .  S
C337        C338   1.407       .  A
C337        F344   1.358   1_556  S
C338        C339   1.408       .  A
C339        C340   1.393       .  A
C339        F346   1.358       .  S
C340        F345   1.358       .  S
C341        C342   1.407       .  A
C342        F343   1.358       .  S
C347        C348   1.409       .  A
C347        C352   1.401       .  A
C347        F354   1.358       .  S
C348        C349   1.407       .  A
C349        C350   1.400       .  A
C349        F356   1.358       .  S
C350        C351   1.409       .  A
C350        F355   1.358       .  S
C351        C352   1.408       .  A
C352        F353   1.358   1_556  S
C357        C358   1.407       .  A
C357        C362   1.399       .  A
C357        F364   1.358       .  S
C358        C359   1.406       .  A
C359        C360   1.399       .  A
C359        F366   1.358       .  S
C360        C361   1.409       .  A
C360        F365   1.358       .  S
C361        C362   1.409       .  A
C362        F363   1.358       .  S
C367        C368   1.409       .  A
C367        C768   1.401   1_455  A
C367        F374   1.358       .  S
C368        C369   1.408       .  A
C369        C766   1.397   1_455  A
C369        F376   1.358       .  S
C370        C765   1.397       .  A
C370        C371   1.409       .  A
C370        F375   1.358       .  S
C371        C372   1.408       .  A
C372        C763   1.401       .  A
C372        F373   1.358       .  S
C377        C378   1.407       .  A
C377        C382   1.396       .  A
C377        F384   1.358       .  S
C378        C379   1.411       .  A
C379        C380   1.403       .  A
C379        F386   1.358       .  S
C380        C381   1.408       .  A
C380        F385   1.358       .  S
C381        C382   1.409       .  A
C382        F383   1.358       .  S
C387        C388   1.407       .  A
C387        C392   1.398       .  A
C387        F394   1.358       .  S
C388        C389   1.406       .  A
C389        C390   1.398       .  A
C389        F396   1.358       .  S
C390        C391   1.408       .  A
C390        F395   1.358       .  S
C391        C392   1.407       .  A
C392        F393   1.358       .  S
In397       O399   2.246       .  S
In397       O400   2.250       .  S
In397       O408   2.232       .  S
In397       O402   2.262       .  S
In397       O404   2.255       .  S
In397       O405   2.241       .  S
In397       O406   2.233       .  S
In397       O409   2.245       .  S
C398        O404   1.262       .  A
C398        O406   1.260       .  A
C398        C569   1.484       .  S
O399        C407   1.260       .  A
O400        C407   1.260       .  A
C401        O408   1.259       .  A
C401        O402   1.263       .  A
C401        C579   1.485       .  S
C403        O405   1.260       .  A
C403        O409   1.261       .  A
C403        C586   1.477       .  S
C407        C559   1.483       .  S
In410       O412   2.253       .  S
In410       O413   2.249       .  S
In410       O421   2.230       .  S
In410       O415   2.244       .  S
In410       O417   2.251       .  S
In410       O418   2.257       .  S
In410       O419   2.241       .  S
In410       O422   2.249       .  S
C411        O417   1.260       .  A
C411        O419   1.262       .  A
C411        C576   1.485       .  S
O412        C420   1.258       .  A
O413        C420   1.259       .  A
C414        O421   1.260       .  A
C414        O415   1.260       .  A
C414        C539   1.474       .  S
C416        O418   1.262       .  A
C416        O422   1.260       .  A
C416        C549   1.486   1_554  S
C420        C526   1.479       .  S
In423       O425   2.238       .  S
In423       O426   2.243       .  S
In423       O434   2.227       .  S
In423       O428   2.256       .  S
In423       O430   2.233       .  S
In423       O431   2.250       .  S
In423       O432   2.225       .  S
In423       O435   2.242       .  S
C424        O430   1.265       .  A
C424        O432   1.263       .  A
C424        C506   1.479       .  S
O425        C433   1.260       .  A
O426        C433   1.261       .  A
C427        O434   1.255       .  A
C427        O428   1.259       .  A
C427        C536   1.476       .  S
C429        O431   1.259       .  A
C429        O435   1.258       .  A
C429        C589   1.478   1_556  S
C433        C516   1.471       .  S
In436       O438   2.247       .  S
In436       O439   2.250       .  S
In436       O447   2.246       .  S
In436       O441   2.240       .  S
In436       O443   2.239       .  S
In436       O444   2.255       .  S
In436       O445   2.239       .  S
In436       O448   2.238       .  S
C437        O443   1.260       .  A
C437        O445   1.260       .  A
C437        C509   1.480       .  S
O438        C446   1.260       .  A
O439        C446   1.262       .  A
C440        O447   1.261       .  A
C440        O441   1.260       .  A
C440        C486   1.482       .  S
C442        O444   1.261       .  A
C442        O448   1.258       .  A
C442        C499   1.480       .  S
C446        C546   1.485       .  S
In449       O451   2.242       .  S
In449       O452   2.240       .  S
In449       O460   2.232       .  S
In449       O454   2.267       .  S
In449       O456   2.248       .  S
In449       O457   2.246       .  S
In449       O458   2.237       .  S
In449       O461   2.252       .  S
C450        O456   1.264       .  A
C450        O458   1.261       .  A
C450        C489   1.482       .  S
O451        C459   1.261       .  A
O452        C459   1.262       .  A
C453        O460   1.257       .  A
C453        O454   1.261       .  A
C453        C479   1.485       .  S
C455        O457   1.259       .  A
C455        O461   1.259       .  A
C455        C556   1.480       .  S
C459        C519   1.478       .  S
In462       O464   2.248       .  S
In462       O465   2.244       .  S
In462       O473   2.244       .  S
In462       O467   2.252       .  S
In462       O469   2.254       .  S
In462       O470   2.247       .  S
In462       O471   2.239       .  S
In462       O474   2.247       .  S
C463        O469   1.261       .  A
C463        O471   1.261       .  A
C463        C476   1.482       .  S
O464        C472   1.260       .  A
O465        C472   1.259       .  A
C466        O473   1.260       .  A
C466        O467   1.261       .  A
C466        C566   1.484       .  S
C468        O470   1.259       .  A
C468        O474   1.259       .  A
C468        C529   1.482       .  S
C472        C496   1.480       .  S
C475        C476   1.406       .  A
C475        C678   1.396       .  A
C475        F482   1.358       .  S
C476        C477   1.408       .  A
C477        C676   1.403       .  A
C477        F484   1.358       .  S
C478        C675   1.403       .  A
C478        C479   1.409       .  A
C478        F483   1.358       .  S
C479        C480   1.409       .  A
C480        C673   1.396   1_545  A
C480        F481   1.358       .  S
C485        C486   1.409       .  A
C485        C490   1.399       .  A
C485        F492   1.358       .  S
C486        C487   1.407       .  A
C487        C488   1.399       .  A
C487        F494   1.358       .  S
C488        C489   1.409       .  A
C488        F493   1.358       .  S
C489        C490   1.407       .  A
C490        F491   1.358       .  S
C495        C496   1.408       .  A
C495        C500   1.399       .  A
C495        F502   1.358       .  S
C496        C497   1.407       .  A
C497        C498   1.397       .  A
C497        F504   1.358       .  S
C498        C499   1.408       .  A
C498        F503   1.358       .  S
C499        C500   1.407       .  A
C500        F501   1.358       .  S
C505        C506   1.408       .  A
C505        F512   1.358       .  S
C506        C507   1.407       .  A
C507        F514   1.358       .  S
C508        C509   1.408       .  A
C508        F513   1.358       .  S
C509        C510   1.407       .  A
C510        F511   1.358       .  S
C515        C516   1.404       .  A
C515        C520   1.397       .  A
C515        F522   1.358       .  S
C516        C517   1.404       .  A
C517        C518   1.398       .  A
C517        F524   1.358       .  S
C518        C519   1.408       .  A
C518        F523   1.358       .  S
C519        C520   1.408       .  A
C520        F521   1.358       .  S
C525        C526   1.407       .  A
C525        C530   1.399       .  A
C525        F532   1.358       .  S
C526        C527   1.406       .  A
C527        C528   1.398       .  A
C527        F534   1.358       .  S
C528        C529   1.408       .  A
C528        F533   1.358       .  S
C529        C530   1.409       .  A
C530        F531   1.358       .  S
C535        C536   1.407       .  A
C535        C738   1.399   1_546  A
C535        F542   1.358   1_556  S
C536        C537   1.408       .  A
C537        C538   1.393   1_545  A
C537        F544   1.358       .  S
C538        C737   1.405   1_556  A
C538        F543   1.358       .  S
C539        C736   1.405   1_554  A
C539        C540   1.407       .  A
C540        C733   1.399   1_554  A
C540        F541   1.358       .  S
C545        C546   1.409       .  A
C545        C550   1.401       .  A
C545        F552   1.358       .  S
C546        C547   1.407       .  A
C547        C548   1.400       .  A
C547        F554   1.358       .  S
C548        C549   1.409       .  A
C548        F553   1.358       .  S
C549        C550   1.408       .  A
C550        F551   1.358   1_556  S
C555        C556   1.407       .  A
C555        C560   1.399       .  A
C555        F562   1.358       .  S
C556        C557   1.406       .  A
C557        C558   1.399       .  A
C557        F564   1.358       .  S
C558        C559   1.409       .  A
C558        F563   1.358       .  S
C559        C560   1.409       .  A
C560        F561   1.358       .  S
C565        C566   1.409       .  A
C565        F572   1.358       .  S
C566        C567   1.408       .  A
C567        F574   1.358       .  S
C568        C569   1.409       .  A
C568        F573   1.358       .  S
C569        C570   1.408       .  A
C570        F571   1.358       .  S
C575        C576   1.407       .  A
C575        C580   1.396       .  A
C575        F582   1.358       .  S
C576        C577   1.411       .  A
C577        C578   1.403       .  A
C577        F584   1.358       .  S
C578        C579   1.408       .  A
C578        F583   1.358       .  S
C579        C580   1.409       .  A
C580        F581   1.358       .  S
C585        C586   1.407       .  A
C585        C590   1.398       .  A
C585        F592   1.358       .  S
C586        C587   1.406       .  A
C587        C588   1.398       .  A
C587        F594   1.358       .  S
C588        C589   1.408       .  A
C588        F593   1.358       .  S
C589        C590   1.407       .  A
C590        F591   1.358       .  S
In595       O597   2.246       .  S
In595       O598   2.250       .  S
In595       O606   2.232       .  S
In595       O600   2.262       .  S
In595       O602   2.255       .  S
In595       O603   2.241       .  S
In595       O604   2.233       .  S
In595       O607   2.245       .  S
C596        O602   1.262       .  A
C596        O604   1.260       .  A
C596        C767   1.484       .  S
O597        C605   1.260       .  A
O598        C605   1.260       .  A
C599        O606   1.259       .  A
C599        O600   1.263       .  A
C599        C777   1.485       .  S
C601        O603   1.260       .  A
C601        O607   1.261       .  A
C601        C784   1.477       .  S
C605        C757   1.483       .  S
In608       O610   2.253       .  S
In608       O611   2.249       .  S
In608       O619   2.230       .  S
In608       O613   2.244       .  S
In608       O615   2.251       .  S
In608       O616   2.257       .  S
In608       O617   2.241       .  S
In608       O620   2.249       .  S
C609        O615   1.260       .  A
C609        O617   1.262       .  A
C609        C774   1.485       .  S
O610        C618   1.258       .  A
O611        C618   1.259       .  A
C612        O619   1.260       .  A
C612        O613   1.260       .  A
C612        C737   1.474       .  S
C614        O616   1.262       .  A
C614        O620   1.260       .  A
C614        C747   1.486   1_554  S
C618        C724   1.479       .  S
In621       O623   2.238       .  S
In621       O624   2.243       .  S
In621       O632   2.227       .  S
In621       O626   2.256       .  S
In621       O628   2.233       .  S
In621       O629   2.250       .  S
In621       O630   2.225       .  S
In621       O633   2.242       .  S
C622        O628   1.265       .  A
C622        O630   1.263       .  A
C622        C704   1.479       .  S
O623        C631   1.260       .  A
O624        C631   1.261       .  A
C625        O632   1.255       .  A
C625        O626   1.259       .  A
C625        C734   1.476       .  S
C627        O629   1.259       .  A
C627        O633   1.258       .  A
C627        C787   1.478   1_556  S
C631        C714   1.471       .  S
In634       O636   2.247       .  S
In634       O637   2.250       .  S
In634       O645   2.246       .  S
In634       O639   2.240       .  S
In634       O641   2.239       .  S
In634       O642   2.255       .  S
In634       O643   2.239       .  S
In634       O646   2.238       .  S
C635        O641   1.260       .  A
C635        O643   1.260       .  A
C635        C707   1.480       .  S
O636        C644   1.260       .  A
O637        C644   1.262       .  A
C638        O645   1.261       .  A
C638        O639   1.260       .  A
C638        C684   1.482       .  S
C640        O642   1.261       .  A
C640        O646   1.258       .  A
C640        C697   1.480       .  S
C644        C744   1.485       .  S
In647       O649   2.242       .  S
In647       O650   2.240       .  S
In647       O658   2.232       .  S
In647       O652   2.267       .  S
In647       O654   2.248       .  S
In647       O655   2.246       .  S
In647       O656   2.237       .  S
In647       O659   2.252       .  S
C648        O654   1.264       .  A
C648        O656   1.261       .  A
C648        C687   1.482       .  S
O649        C657   1.261       .  A
O650        C657   1.262       .  A
C651        O658   1.257       .  A
C651        O652   1.261       .  A
C651        C677   1.485       .  S
C653        O655   1.259       .  A
C653        O659   1.259       .  A
C653        C754   1.480       .  S
C657        C717   1.478       .  S
In660       O662   2.248       .  S
In660       O663   2.244       .  S
In660       O671   2.244       .  S
In660       O665   2.252       .  S
In660       O667   2.254       .  S
In660       O668   2.247       .  S
In660       O669   2.239       .  S
In660       O672   2.247       .  S
C661        O667   1.261       .  A
C661        O669   1.261       .  A
C661        C674   1.482       .  S
O662        C670   1.260       .  A
O663        C670   1.259       .  A
C664        O671   1.260       .  A
C664        O665   1.261       .  A
C664        C764   1.484       .  S
C666        O668   1.259       .  A
C666        O672   1.259       .  A
C666        C727   1.482       .  S
C670        C694   1.480       .  S
C673        C674   1.406       .  A
C673        F680   1.358       .  S
C674        C675   1.408   1_565  A
C675        F682   1.358   1_545  S
C676        C677   1.409       .  A
C676        F681   1.358       .  S
C677        C678   1.409       .  A
C678        F679   1.358       .  S
C683        C684   1.409       .  A
C683        C688   1.399       .  A
C683        F690   1.358       .  S
C684        C685   1.407       .  A
C685        C686   1.399       .  A
C685        F692   1.358       .  S
C686        C687   1.409       .  A
C686        F691   1.358       .  S
C687        C688   1.407       .  A
C688        F689   1.358       .  S
C693        C694   1.408       .  A
C693        C698   1.399       .  A
C693        F700   1.358       .  S
C694        C695   1.407       .  A
C695        C696   1.397       .  A
C695        F702   1.358       .  S
C696        C697   1.408       .  A
C696        F701   1.358       .  S
C697        C698   1.407       .  A
C698        F699   1.358       .  S
C703        C704   1.408       .  A
C703        F710   1.358       .  S
C704        C705   1.407       .  A
C705        F712   1.358       .  S
C706        C707   1.408       .  A
C706        F711   1.358       .  S
C707        C708   1.407       .  A
C708        F709   1.358       .  S
C713        C714   1.404       .  A
C713        C718   1.397       .  A
C713        F720   1.358       .  S
C714        C715   1.404       .  A
C715        C716   1.398       .  A
C715        F722   1.358       .  S
C716        C717   1.408       .  A
C716        F721   1.358       .  S
C717        C718   1.408       .  A
C718        F719   1.358       .  S
C723        C724   1.407       .  A
C723        C728   1.399       .  A
C723        F730   1.358       .  S
C724        C725   1.406       .  A
C725        C726   1.398       .  A
C725        F732   1.358       .  S
C726        C727   1.408       .  A
C726        F731   1.358       .  S
C727        C728   1.409       .  A
C728        F729   1.358       .  S
C733        C734   1.407       .  A
C733        F740   1.358   1_556  S
C734        C735   1.408       .  A
C735        C736   1.393       .  A
C735        F742   1.358       .  S
C736        F741   1.358       .  S
C737        C738   1.407       .  A
C738        F739   1.358       .  S
C743        C744   1.409       .  A
C743        C748   1.401       .  A
C743        F750   1.358       .  S
C744        C745   1.407       .  A
C745        C746   1.400       .  A
C745        F752   1.358       .  S
C746        C747   1.409       .  A
C746        F751   1.358       .  S
C747        C748   1.408       .  A
C748        F749   1.358   1_556  S
C753        C754   1.407       .  A
C753        C758   1.399       .  A
C753        F760   1.358       .  S
C754        C755   1.406       .  A
C755        C756   1.399       .  A
C755        F762   1.358       .  S
C756        C757   1.409       .  A
C756        F761   1.358       .  S
C757        C758   1.409       .  A
C758        F759   1.358       .  S
C763        C764   1.409       .  A
C763        F770   1.358       .  S
C764        C765   1.408       .  A
C765        F772   1.358       .  S
C766        C767   1.409       .  A
C766        F771   1.358       .  S
C767        C768   1.408       .  A
C768        F769   1.358       .  S
C773        C774   1.407       .  A
C773        C778   1.396       .  A
C773        F780   1.358       .  S
C774        C775   1.411       .  A
C775        C776   1.403       .  A
C775        F782   1.358       .  S
C776        C777   1.408       .  A
C776        F781   1.358       .  S
C777        C778   1.409       .  A
C778        F779   1.358       .  S
C783        C784   1.407       .  A
C783        C788   1.398       .  A
C783        F790   1.358       .  S
C784        C785   1.406       .  A
C785        C786   1.398       .  A
C785        F792   1.358       .  S
C786        C787   1.408       .  A
C786        F791   1.358       .  S
C787        C788   1.407       .  A
C788        F789   1.358       .  S
