geometry optimzed in LAMMPS
_audit_creation_date              2020-12-01 
_audit_creation_method            'lammps2cif' 
_symmetry_space_group_name_H-M    'P1' 
_symmetry_Int_Tables_number       1 
_symmetry_cell_setting            triclinic 
loop_ 
_symmetry_equiv_pos_as_xyz 
  x,y,z 
_cell_length_a                    44.06416389 
_cell_length_b                    44.842240042089124 
_cell_length_c                    44.10885353790527 
_cell_angle_alpha                 89.2842435504463 
_cell_angle_beta                  90.39060862553802 
_cell_angle_gamma                 90.25391563014358 
loop_ 
_atom_site_label 
_atom_site_type_symbol 
_atom_site_fract_x 
_atom_site_fract_y 
_atom_site_fract_z 
_atom_site_charge 
C1          C  0.79259139  0.82521686  0.02097417     0.81000
N2          N  0.81307272  0.84788524  0.02022482    -0.77300
C3          C  0.82672672  0.85612975  0.99408782     0.83400
N4          N  0.82039671  0.84117929  0.96833478    -0.77300
C5          C  0.80052929  0.81788216  0.96872910     0.83500
N6          N  0.78638200  0.81007921  0.99507143    -0.79000
C7          C  0.75410076  0.20419034  0.03430693     0.81000
N8          N  0.78065050  0.18874588  0.03371010    -0.77300
C9          C  0.79299646  0.18026938  0.00709774     0.83400
N10         N  0.77835735  0.18719461  0.98081260    -0.77300
C11         C  0.75197088  0.20278576  0.98061109     0.83500
N12         N  0.73994187  0.21160009  0.00755896    -0.79000
C13         C  0.19309611  0.84966029  0.02415110     0.81000
N14         N  0.16849166  0.86720622  0.01965573    -0.77300
C15         C  0.16331409  0.88140606  0.99295984     0.83400
N16         N  0.18322699  0.87796258  0.96990181    -0.77300
C17         C  0.20784114  0.85981598  0.97347630     0.83500
N18         N  0.21265654  0.84575349  0.00072996    -0.79000
C19         C  0.79425642  0.05302969  0.79147924     0.81000
N20         N  0.80984605  0.04988953  0.81791441    -0.77300
C21         C  0.81949434  0.02294520  0.82782650     0.83400
N22         N  0.81354873  0.99859795  0.81082839    -0.77300
C23         C  0.79741508  0.00097484  0.78440955     0.83500
N24         N  0.78760314  0.02838771  0.77471443    -0.79000
C25         C  0.95867430  0.22842165  0.79729416     0.81000
N26         N  0.98370237  0.23296634  0.78011927    -0.77300
C27         C  0.01030416  0.21970887  0.78778515     0.83400
N28         N  0.01161203  0.20151407  0.81277855    -0.77300
C29         C  0.98664236  0.19698613  0.83030984     0.83500
N30         N  0.96028202  0.21062383  0.82238527    -0.79000
C31         C  0.96696242  0.84330307  0.79900594     0.81000
N32         N  0.96787261  0.86246945  0.82259071    -0.77300
C33         C  0.99387016  0.87677042  0.83025472     0.83400
N34         N  0.01931945  0.87187523  0.81413525    -0.77300
C35         C  0.01910778  0.85267227  0.79056291     0.83500
N36         N  0.99279276  0.83835544  0.78304210    -0.79000
C37         C  0.18461623  0.06093799  0.80548256     0.81000
N38         N  0.19715874  0.03434544  0.79799740    -0.77300
C39         C  0.18890102  0.00899969  0.81322338     0.83400
N40         N  0.16829590  0.01083726  0.83587571    -0.77300
C41         C  0.15586938  0.03715873  0.84369398     0.83500
N42         N  0.16406883  0.06212774  0.82825237    -0.79000
C43         C  0.95440235  0.80611273  0.17632444     0.81000
N44         N  0.95495844  0.83273232  0.16105606    -0.77300
C45         C  0.98172049  0.84564523  0.15314200     0.83400
N46         N  0.00795342  0.83156704  0.16035209    -0.77300
C47         C  0.00808412  0.80514695  0.17565460     0.83500
N48         N  0.98112108  0.79247213  0.18402093    -0.79000
C49         C  0.77629105  0.04745400  0.20395044     0.81000
N50         N  0.79912454  0.04531607  0.18367195    -0.77300
C51         C  0.80423594  0.02008516  0.16821992     0.83400
N52         N  0.78591855  0.99621028  0.17293254    -0.77300
C53         C  0.76286516  0.99730807  0.19331439     0.83500
N54         N  0.75807928  0.02307377  0.20899331    -0.79000
C55         C  0.95337514  0.20558071  0.23352442     0.81000
N56         N  0.95237265  0.18996026  0.20730036    -0.77300
C57         C  0.97814979  0.18303950  0.19242360     0.83400
N58         N  0.00525050  0.19123712  0.20432087    -0.77300
C59         C  0.00701053  0.20638378  0.23080214     0.83500
N60         N  0.98085749  0.21399527  0.24527449    -0.79000
Zr61       Zr  0.26510669  0.31385228  0.28940468     2.17500
O62         O  0.30149884  0.31857898  0.33096920    -0.50600
O63         O  0.26095708  0.36737087  0.28682848    -0.73800
O64         O  0.31594784  0.32581762  0.27225472    -0.80500
O65         O  0.20241933  0.29764498  0.34833178    -0.82300
O66         O  0.32322119  0.30896655  0.22454453    -0.77900
O67         O  0.25005890  0.31632797  0.34185503    -0.89500
O68         O  0.22697838  0.38208385  0.25112695    -0.75500
O69         O  0.25820151  0.32732971  0.23762893    -0.85000
O70         O  0.21227823  0.32345066  0.28408699    -0.84700
O71         O  0.28375137  0.27186444  0.26226475    -0.71400
O72         O  0.24054647  0.26860432  0.30518683    -0.83600
Zr73       Zr  0.19721584  0.24889911  0.21895279     2.26400
Zr74       Zr  0.27515241  0.28498225  0.20991766     2.06300
Zr75       Zr  0.18730029  0.27792129  0.29876498     2.10000
Zr76       Zr  0.20527731  0.33607628  0.23188350     1.78800
O77         O  0.17635067  0.23877019  0.33595690    -0.92400
O78         O  0.22084354  0.36332560  0.18640391    -0.40200
O79         O  0.17907660  0.29103917  0.24644360    -0.76800
O80         O  0.22183691  0.29427362  0.20318277    -0.95500
O81         O  0.25003049  0.23958037  0.22437169    -0.88800
O82         O  0.20443309  0.23581840  0.27088684    -0.91700
C83         C  0.24671225  0.38757754  0.27182403     1.02100
C84         C  0.22702867  0.30975870  0.35827517     1.15000
C85         C  0.33233681  0.32232669  0.24865214     1.05800
O86         O  0.28680053  0.32163091  0.17047970    -0.93800
O87         O  0.25993880  0.26465249  0.16088404    -0.89600
O88         O  0.21645368  0.23818212  0.16887627    -0.82700
C89         C  0.23811073  0.24768279  0.15195733     1.12400
O90         O  0.29909243  0.22165058  0.31264140    -0.95800
Zr91       Zr  0.25747578  0.22701219  0.27634524     1.88900
O92         O  0.20187022  0.19535242  0.21974692    -0.72400
O93         O  0.31520330  0.25124705  0.19449904    -0.51700
O94         O  0.30194450  0.20284748  0.25548361    -0.96400
O95         O  0.24416249  0.19636373  0.32041457    -0.53600
O96         O  0.23795018  0.18159277  0.25390938    -0.73000
C97         C  0.21797061  0.17565187  0.23355881     0.99400
O98         O  0.15817672  0.25181807  0.17941833    -0.61800
O99         O  0.14576384  0.30979750  0.31438399    -0.56600
O100        O  0.14674967  0.23552622  0.23641617    -0.93300
O101        O  0.13902225  0.25542579  0.28289425    -0.91700
O102        O  0.16452220  0.36664696  0.25155184    -0.92000
O103        O  0.16375623  0.34028547  0.19525854    -0.90800
C104        C  0.13006681  0.24086831  0.25947855     1.18200
H105        H  0.20615521  0.33965117  0.29694926     0.34200
H106        H  0.21732380  0.29832356  0.18207904     0.45000
H107        H  0.19282919  0.21824639  0.27637267     0.38600
H108        H  0.30515122  0.26894117  0.26625168     0.35000
H109        H  0.20731178  0.38085596  0.18530774     0.26800
H110        H  0.32646485  0.26248412  0.17869075     0.32800
H111        H  0.29661038  0.19901672  0.23403863     0.38700
H112        H  0.15523730  0.35432694  0.26780512     0.33100
H113        H  0.13812519  0.30040612  0.33329213     0.32000
H114        H  0.15645313  0.24422915  0.34452480     0.33700
H115        H  0.22359778  0.18849044  0.31591751     0.32700
H116        H  0.16516559  0.32214590  0.18280013     0.36700
H117        H  0.14220392  0.26482125  0.18767216     0.29400
H118        H  0.31064571  0.33869646  0.32861350     0.33600
H119        H  0.29773960  0.23949724  0.32556583     0.36500
H120        H  0.15558687  0.32851531  0.32106961     0.29100
H121        H  0.16707314  0.26403410  0.16285093     0.42000
H122        H  0.26677085  0.32809969  0.16260036     0.32000
H123        H  0.24102868  0.37176432  0.19154990     0.39600
H124        H  0.24102501  0.21074042  0.33692506     0.31500
H125        H  0.32935274  0.25025054  0.21201891     0.31500
H126        H  0.31804119  0.30446289  0.32652945     0.31800
C127        C  0.18853144  0.05426634  0.20200232     0.81000
N128        N  0.16247235  0.05195981  0.18563577    -0.77300
C129        C  0.15242915  0.02543373  0.17530730     0.83400
N130        N  0.16899495  0.00066649  0.18156971    -0.77300
C131        C  0.19491901  0.00225453  0.19846373     0.83500
N132        N  0.20473594  0.02920458  0.20880776    -0.79000
Zr133      Zr  0.26520429  0.74506107  0.28659172     2.17500
O134        O  0.30516690  0.70789829  0.28163314    -0.50600
O135        O  0.25929530  0.74207768  0.34106347    -0.73800
O136        O  0.31427485  0.76286464  0.30369268    -0.80500
O137        O  0.20485238  0.68698815  0.26768245    -0.82300
O138        O  0.32311884  0.80845156  0.28230698    -0.77900
O139        O  0.24967273  0.69378623  0.29274582    -0.89500
O140        O  0.22394687  0.77520296  0.35609074    -0.75500
O141        O  0.25788589  0.79520518  0.30133098    -0.85000
O142        O  0.21228548  0.74897168  0.29609158    -0.84700
O143        O  0.28326450  0.77442125  0.24451574    -0.71400
O144        O  0.24085324  0.73159829  0.23988276    -0.83600
Zr145      Zr  0.19688116  0.81702839  0.22248321     2.26400
Zr146      Zr  0.27483278  0.82510139  0.25931548     2.06300
Zr147      Zr  0.18765980  0.73636441  0.24945218     2.10000
Zr148      Zr  0.20491637  0.79948068  0.31023655     1.78800
O149        O  0.17598366  0.70260020  0.20810915    -0.92400
O150        O  0.22248406  0.84080395  0.34130969    -0.40200
O151        O  0.17911558  0.78698918  0.26405941    -0.76800
O152        O  0.22161638  0.83032451  0.26893731    -0.95500
O153        O  0.24962834  0.81294600  0.21284176    -0.88800
O154        O  0.20420617  0.76676018  0.20775145    -0.91700
C155        C  0.24356807  0.75474608  0.36157326     1.02100
C156        C  0.22777663  0.67740536  0.28327910     1.15000
C157        C  0.33142131  0.78541911  0.29807065     1.05800
O158        O  0.28803788  0.85981930  0.29939248    -0.93800
O159        O  0.25830656  0.87456773  0.24073587    -0.89600
O160        O  0.21517718  0.86732600  0.21290875    -0.82700
C161        C  0.23648832  0.88392794  0.22344380     1.12400
O162        O  0.29501333  0.72397311  0.19134164    -0.95800
Zr163      Zr  0.25705921  0.76270579  0.19827519     1.88900
O164        O  0.20093953  0.81913175  0.16795106    -0.72400
O165        O  0.31292314  0.84332017  0.22378757    -0.51700
O166        O  0.30200449  0.78439322  0.17456149    -0.96400
O167        O  0.24078169  0.72298661  0.16450901    -0.53600
O168        O  0.23784932  0.78780993  0.15282026    -0.73000
C169        C  0.21704541  0.80712614  0.14734704     0.99400
O170        O  0.15834656  0.85491368  0.23083602    -0.61800
O171        O  0.14804560  0.71627619  0.28223400    -0.56600
O172        O  0.14655356  0.79996486  0.20786802    -0.93300
O173        O  0.13903751  0.75342631  0.22786616    -0.91700
O174        O  0.15883244  0.78121222  0.33447981    -0.92000
O175        O  0.16568608  0.83702587  0.31677124    -0.90800
C176        C  0.12997844  0.77687122  0.21325916     1.18200
H177        H  0.20590675  0.73537429  0.31202520     0.34200
H178        H  0.21710909  0.85088439  0.27382700     0.45000
H179        H  0.19250808  0.76223813  0.18982492     0.38600
H180        H  0.30465591  0.77088286  0.24155149     0.35000
H181        H  0.20918822  0.84040406  0.35932893     0.26800
H182        H  0.32599267  0.85681221  0.23582312     0.32800
H183        H  0.29536973  0.80401249  0.16644657     0.38700
H184        H  0.16427896  0.76145745  0.34311728     0.33100
H185        H  0.13431017  0.73327474  0.28583052     0.32000
H186        H  0.16814285  0.68426675  0.21809433     0.33700
H187        H  0.22162373  0.73007850  0.15510842     0.32700
H188        H  0.17012858  0.85278521  0.30152643     0.36700
H189        H  0.14281722  0.84485481  0.24350873     0.29400
H190        H  0.31374925  0.70502531  0.30227477     0.33600
H191        H  0.30122895  0.72562524  0.16984770     0.36500
H192        H  0.13618727  0.70268995  0.26912964     0.29100
H193        H  0.16786760  0.86941352  0.24477398     0.42000
H194        H  0.30575940  0.87104500  0.29152096     0.32000
H195        H  0.24256326  0.83447918  0.34918418     0.39600
H196        H  0.23446894  0.70650568  0.17824513     0.31500
H197        H  0.32584258  0.82582355  0.21978396     0.31500
H198        H  0.32151598  0.71773841  0.26983385     0.31800
Zr199      Zr  0.76607120  0.24343660  0.22383361     2.17500
O200        O  0.80306367  0.24877408  0.18313496    -0.50600
O201        O  0.76546486  0.18910254  0.22692303    -0.73800
O202        O  0.81687865  0.23313543  0.24253912    -0.80500
O203        O  0.70277619  0.25585137  0.16453024    -0.82300
O204        O  0.82313916  0.25282076  0.28959315    -0.77900
O205        O  0.74806442  0.23278491  0.17297669    -0.89500
O206        O  0.73047005  0.17438288  0.26141017    -0.75500
O207        O  0.75914176  0.23072423  0.27583715    -0.85000
O208        O  0.71355018  0.23204454  0.22820147    -0.84700
O209        O  0.78235339  0.28644096  0.25185326    -0.71400
O210        O  0.73974077  0.28778541  0.20768052    -0.83600
Zr211      Zr  0.69539920  0.30628637  0.29321475     2.26400
Zr212      Zr  0.77402486  0.27374425  0.30432242     2.06300
Zr213      Zr  0.68676220  0.27631766  0.21323515     2.10000
Zr214      Zr  0.70658665  0.21941616  0.28004309     1.78800
O215        O  0.67358207  0.31204633  0.17326252    -0.92400
O216        O  0.72067131  0.19131287  0.32552902    -0.40200
O217        O  0.67910845  0.26342190  0.26541594    -0.76800
O218        O  0.72118680  0.26175260  0.30947059    -0.95500
O219        O  0.74788403  0.31823197  0.28895829    -0.88800
O220        O  0.70256677  0.31903974  0.24122624    -0.91700
C221        C  0.75110734  0.16878274  0.24194133     1.02100
C222        C  0.72544665  0.24005987  0.15592196     1.15000
C223        C  0.83285941  0.23886856  0.26623585     1.05800
O224        O  0.78960254  0.23745721  0.34285268    -0.93800
O225        O  0.75644381  0.29152705  0.35405272    -0.89600
O226        O  0.71150436  0.31499867  0.34509038    -0.82700
C227        C  0.73329816  0.30670364  0.36269243     1.12400
O228        O  0.79529783  0.33334195  0.19893734    -0.95800
Zr229      Zr  0.75516329  0.33026426  0.23670633     1.88900
O230        O  0.69814511  0.36038585  0.29166242    -0.72400
O231        O  0.81133337  0.31096482  0.31975902    -0.51700
O232        O  0.79889511  0.35741989  0.25656301    -0.96400
O233        O  0.74029955  0.36292568  0.19454069    -0.53600
O234        O  0.73345669  0.37517917  0.25750111    -0.73000
C235        C  0.71290369  0.38067675  0.27706814     0.99400
O236        O  0.65322470  0.29967926  0.32845287    -0.61800
O237        O  0.64776954  0.24041468  0.19885264    -0.56600
O238        O  0.64565010  0.31981470  0.27436295    -0.93300
O239        O  0.63777209  0.29789885  0.22872228    -0.91700
O240        O  0.66482915  0.19090949  0.25813440    -0.92000
O241        O  0.66397108  0.21305192  0.31434634    -0.90800
C242        C  0.62892099  0.31355133  0.25136749     1.18200
H243        H  0.70787655  0.21552404  0.21554235     0.34200
H244        H  0.71647926  0.25718367  0.33030564     0.45000
H245        H  0.69044959  0.33615257  0.23547946     0.38600
H246        H  0.80360954  0.29034977  0.24833766     0.35000
H247        H  0.71059161  0.17169603  0.32315561     0.26800
H248        H  0.82157049  0.30197093  0.33767472     0.32800
H249        H  0.79404369  0.36109658  0.27807538     0.38700
H250        H  0.67432600  0.17467650  0.24659166     0.33100
H251        H  0.63706299  0.23556550  0.21797162     0.32000
H252        H  0.67214992  0.33149658  0.18346484     0.33700
H253        H  0.71887350  0.36814135  0.19836249     0.32700
H254        H  0.66543938  0.23014924  0.32824622     0.36700
H255        H  0.64033953  0.28394857  0.31935539     0.29400
H256        H  0.81408188  0.22957564  0.18273310     0.33600
H257        H  0.79996720  0.35485430  0.19644116     0.36500
H258        H  0.63293553  0.25210694  0.18671720     0.29100
H259        H  0.66174199  0.28988319  0.34682822     0.42000
H260        H  0.77130898  0.23391191  0.35529400     0.32000
H261        H  0.74255709  0.18709503  0.32309306     0.39600
H262        H  0.73939871  0.34978793  0.17668517     0.31500
H263        H  0.82691598  0.31095743  0.30367885     0.31500
H264        H  0.81814937  0.26346994  0.19050330     0.31800
Zr265      Zr  0.69673120  0.73928229  0.28080015     2.17500
O266        O  0.65535456  0.70304831  0.28437760    -0.50600
O267        O  0.69933048  0.74177968  0.33573363    -0.73800
O268        O  0.71354628  0.68808720  0.28745646    -0.80500
O269        O  0.63633859  0.80049989  0.26589734    -0.82300
O270        O  0.76005912  0.68228244  0.26627707    -0.77900
O271        O  0.64365395  0.75332119  0.28381096    -0.89500
O272        O  0.73587969  0.77449480  0.35032206    -0.75500
O273        O  0.74913826  0.74534032  0.29294314    -0.85000
O274        O  0.70249047  0.79035357  0.29363444    -0.84700
O275        O  0.72318219  0.72507587  0.23572328    -0.71400
O276        O  0.68008747  0.76660022  0.23682179    -0.83600
Zr277      Zr  0.76581006  0.81136382  0.21635461     2.26400
Zr278      Zr  0.77597226  0.73217388  0.24790310     2.06300
Zr279      Zr  0.68644347  0.81791429  0.24961602     2.10000
Zr280      Zr  0.75515361  0.79693024  0.30428152     1.78800
O281        O  0.65138543  0.83340543  0.20960576    -0.92400
O282        O  0.80125749  0.78095482  0.33055134    -0.40200
O283        O  0.73919955  0.82547252  0.26100813    -0.76800
O284        O  0.78277891  0.78376157  0.26005785    -0.95500
O285        O  0.76020359  0.76015497  0.20393046    -0.88800
O286        O  0.71340464  0.80522631  0.20460197    -0.91700
C287        C  0.71488704  0.75546972  0.35600851     1.02100
C288        C  0.62664792  0.77575331  0.27738519     1.15000
C289        C  0.73633769  0.67215989  0.28002496     1.05800
O290        O  0.81391591  0.72276467  0.28716722    -0.93800
O291        O  0.82421043  0.74885150  0.22518258    -0.89600
O292        O  0.81616649  0.79451510  0.20344720    -0.82700
C293        C  0.83302137  0.77205531  0.20998996     1.12400
O294        O  0.66987007  0.71495278  0.18642147    -0.95800
Zr295      Zr  0.70788939  0.75397543  0.19232341     1.88900
O296        O  0.76318046  0.81101647  0.16161952    -0.72400
O297        O  0.79528877  0.69423319  0.21406534    -0.51700
O298        O  0.72515478  0.71109084  0.16402376    -0.96400
O299        O  0.66378162  0.77133375  0.16353354    -0.53600
O300        O  0.73052563  0.77479868  0.14651872    -0.73000
C301        C  0.74967762  0.79580258  0.14107912     0.99400
O302        O  0.80637806  0.84856700  0.22112450    -0.61800
O303        O  0.66600419  0.85133915  0.28750725    -0.56600
O304        O  0.74715257  0.86188185  0.20898077    -0.93300
O305        O  0.70344238  0.86796773  0.23541291    -0.91700
O306        O  0.73604565  0.83955817  0.33188722    -0.92000
O307        O  0.79200956  0.83690281  0.31152952    -0.90800
C308        C  0.72550846  0.87792267  0.21924114     1.18200
H309        H  0.69014922  0.79550301  0.31081030     0.34200
H310        H  0.80399551  0.78784877  0.26385424     0.45000
H311        H  0.70742816  0.81802770  0.18781412     0.38600
H312        H  0.71909713  0.70456021  0.23103988     0.35000
H313        H  0.80001230  0.78997125  0.35088006     0.26800
H314        H  0.80661554  0.68018507  0.22737572     0.32800
H315        H  0.74712888  0.71461523  0.16102817     0.38700
H316        H  0.72342589  0.83107103  0.34835596     0.33100
H317        H  0.68312867  0.86461283  0.29307377     0.32000
H318        H  0.63858337  0.84878411  0.21901940     0.33700
H319        H  0.66899936  0.79181104  0.15667492     0.32700
H320        H  0.80722990  0.83412567  0.29541177     0.36700
H321        H  0.79774445  0.86525148  0.23269515     0.29400
H322        H  0.65830864  0.69224150  0.30382043     0.33600
H323        H  0.66450705  0.70906011  0.20742565     0.36500
H324        H  0.65171604  0.86436309  0.27616097     0.29100
H325        H  0.82134275  0.83971249  0.23542877     0.42000
H326        H  0.83199706  0.71577051  0.27615851     0.32000
H327        H  0.79829764  0.75935165  0.33434576     0.39600
H328        H  0.64777881  0.77409029  0.17888949     0.31500
H329        H  0.77713013  0.68291551  0.20739944     0.31500
H330        H  0.65907264  0.68813150  0.26839551     0.31800
C331        C  0.19399046  0.22450503  0.03311040     0.81000
N332        N  0.20188121  0.23766776  0.00636502    -0.77300
C333        C  0.18464762  0.23339920  0.98102490     0.83400
N334        N  0.15937342  0.21584889  0.98268691    -0.77300
C335        C  0.15140247  0.20248239  0.00930020     0.83500
N336        N  0.16888029  0.20692429  0.03427627    -0.79000
Zr337      Zr  0.19428690  0.25031028  0.78641825     2.17500
O338        O  0.15845827  0.23035861  0.82362057    -0.50600
O339        O  0.20142049  0.19716535  0.78312012    -0.73800
O340        O  0.14330963  0.24328461  0.76723180    -0.80500
O341        O  0.24766092  0.27415237  0.85184163    -0.82300
O342        O  0.13762232  0.26355825  0.72018819    -0.77900
O343        O  0.20131893  0.25496037  0.84038392    -0.89500
O344        O  0.23541481  0.18575144  0.74680048    -0.75500
O345        O  0.20360272  0.24119273  0.73444550    -0.85000
O346        O  0.24737795  0.24094446  0.78410550    -0.84700
O347        O  0.17681536  0.29481798  0.76104682    -0.71400
O348        O  0.21792796  0.29423678  0.80559112    -0.83600
Zr349      Zr  0.26484043  0.32022544  0.72363514     2.26400
Zr350      Zr  0.18732662  0.28579108  0.70857913     2.06300
Zr351      Zr  0.27114523  0.28543797  0.80273627     2.10000
Zr352      Zr  0.25701861  0.23303420  0.73160261     1.78800
O353        O  0.28968040  0.32298596  0.83779756    -0.92400
O354        O  0.24526622  0.20848729  0.68395814    -0.40200
O355        O  0.28165358  0.27658214  0.75043625    -0.76800
O356        O  0.24093658  0.27635781  0.70387090    -0.95500
O357        O  0.21199511  0.32980282  0.72699710    -0.88800
O358        O  0.25592563  0.32980484  0.77576330    -0.91700
C359        C  0.21574432  0.17861240  0.76677881     1.02100
C360        C  0.22153347  0.26352211  0.85940001     1.15000
C361        C  0.12751380  0.24933350  0.74355667     1.05800
O362        O  0.17550644  0.25141293  0.66790599    -0.93800
O363        O  0.20381245  0.30937117  0.66119109    -0.89600
O364        O  0.25047987  0.32865474  0.67111465    -0.82700
C365        C  0.22801500  0.32348715  0.65327716     1.12400
O366        O  0.16161085  0.33997514  0.81564724    -0.95800
Zr367      Zr  0.20280074  0.33830149  0.77921496     1.88900
O368        O  0.25764208  0.37347773  0.72495919    -0.72400
O369        O  0.14888287  0.32166283  0.69240748    -0.51700
O370        O  0.15876514  0.36611810  0.76130916    -0.96400
O371        O  0.21860884  0.36263027  0.82592822    -0.53600
O372        O  0.22204875  0.38534253  0.75979706    -0.73000
C373        C  0.24132387  0.39212574  0.73923918     0.99400
O374        O  0.30809195  0.32799237  0.69001795    -0.61800
O375        O  0.30094583  0.24536257  0.82576846    -0.56600
O376        O  0.31592973  0.32617440  0.74319758    -0.93300
O377        O  0.32226481  0.30162829  0.78827343    -0.91700
O378        O  0.29908826  0.20244868  0.74989496    -0.92000
O379        O  0.30155702  0.23428461  0.69908033    -0.90800
C380        C  0.33226514  0.31715210  0.76567644     1.18200
H381        H  0.25295205  0.22382340  0.79646577     0.34200
H382        H  0.24631448  0.27337891  0.68293817     0.45000
H383        H  0.26753294  0.34686350  0.78250147     0.38600
H384        H  0.15542326  0.29804913  0.76422265     0.35000
H385        H  0.25371103  0.18816864  0.68638695     0.26800
H386        H  0.13382090  0.30990690  0.68077705     0.32800
H387        H  0.16364521  0.37180925  0.74012984     0.38700
H388        H  0.29188371  0.19304862  0.76897371     0.33100
H389        H  0.31336141  0.23760092  0.80901594     0.32000
H390        H  0.30178976  0.31168679  0.85299282     0.33700
H391        H  0.23610718  0.37538751  0.82019347     0.32700
H392        H  0.30961046  0.25486807  0.70063537     0.36700
H393        H  0.30583026  0.31323357  0.67363387     0.29400
H394        H  0.15032815  0.21154969  0.81506903     0.33600
H395        H  0.15686646  0.31877827  0.82013780     0.36500
H396        H  0.31565374  0.25552275  0.83923942     0.29100
H397        H  0.30490429  0.34767977  0.68008189     0.42000
H398        H  0.15983871  0.26178856  0.65557643     0.32000
H399        H  0.22298204  0.20551893  0.68423062     0.39600
H400        H  0.22756464  0.34648683  0.83855658     0.31500
H401        H  0.13822520  0.32703172  0.71123844     0.31500
H402        H  0.14106437  0.24419888  0.82376467     0.31800
Zr403      Zr  0.20710836  0.81577363  0.79396135     2.17500
O404        O  0.17027123  0.81066667  0.83477049    -0.50600
O405        O  0.20752784  0.86925528  0.79116484    -0.73800
O406        O  0.22806027  0.83190471  0.84188065    -0.80500
O407        O  0.14690107  0.80460428  0.73213110    -0.82300
O408        O  0.27331066  0.80885328  0.85009576    -0.77900
O409        O  0.15573668  0.82574110  0.77807435    -0.89500
O410        O  0.24415088  0.88462622  0.75866286    -0.75500
O411        O  0.25865042  0.82885866  0.78594868    -0.85000
O412        O  0.21055392  0.82759542  0.74138288    -0.84700
O413        O  0.23480493  0.77283526  0.81107770    -0.71400
O414        O  0.18953352  0.77210382  0.76834953    -0.83600
Zr415      Zr  0.27486128  0.75325245  0.72375088     2.26400
Zr416      Zr  0.28690372  0.78603347  0.80174665     2.06300
Zr417      Zr  0.19494828  0.78368312  0.71531456     2.10000
Zr418      Zr  0.26219067  0.84004334  0.73328099     1.78800
O419        O  0.15684777  0.74674777  0.70116906    -0.92400
O420        O  0.30826812  0.86874344  0.74254025    -0.40200
O421        O  0.24707177  0.79615273  0.70658664    -0.76800
O422        O  0.29185159  0.79755312  0.74869835    -0.95500
O423        O  0.27063167  0.74186467  0.77621491    -0.88800
O424        O  0.22292074  0.74069402  0.73119116    -0.91700
C425        C  0.22349115  0.88963896  0.77835513     1.02100
C426        C  0.13860944  0.81943077  0.75542496     1.15000
C427        C  0.25116097  0.82543913  0.85845778     1.05800
O428        O  0.32473823  0.82487123  0.81048480    -0.93800
O429        O  0.33487254  0.76318062  0.78700492    -0.89600
O430        O  0.32540508  0.74102243  0.74178058    -0.82700
C431        C  0.34275705  0.74728289  0.76433868     1.12400
O432        O  0.18193334  0.72503309  0.82479910    -0.95800
Zr433      Zr  0.21860486  0.72951832  0.78384031     1.88900
O434        O  0.27210340  0.69951046  0.72625742    -0.72400
O435        O  0.30526131  0.75198478  0.84118792    -0.51700
O436        O  0.23871554  0.69905309  0.82543799    -0.96400
O437        O  0.17438221  0.70079718  0.76753386    -0.53600
O438        O  0.23841474  0.68451565  0.76197303    -0.73000
C439        C  0.25775306  0.67928969  0.74120613     0.99400
O440        O  0.31333950  0.75774687  0.68427068    -0.61800
O441        O  0.17674464  0.81955833  0.67756426    -0.56600
O442        O  0.25583969  0.74133285  0.67387087    -0.93300
O443        O  0.21069608  0.76468630  0.66588191    -0.91700
O444        O  0.23761630  0.87002146  0.69386897    -0.92000
O445        O  0.29425786  0.84433877  0.68869771    -0.90800
C446        C  0.23327094  0.74893530  0.65703859     1.18200
H447        H  0.19764774  0.84419109  0.73589259     0.34200
H448        H  0.31285839  0.80145550  0.74392810     0.45000
H449        H  0.21692995  0.72386846  0.71915269     0.38600
H450        H  0.23157273  0.76940832  0.83241771     0.35000
H451        H  0.30308291  0.88936152  0.73616913     0.26800
H452        H  0.31819213  0.76442993  0.85445630     0.32800
H453        H  0.26082312  0.69804824  0.82174264     0.38700
H454        H  0.24607170  0.89034098  0.69643544     0.33100
H455        H  0.19537488  0.82762829  0.66805943     0.32000
H456        H  0.14504000  0.75641392  0.68461453     0.33700
H457        H  0.18045663  0.69106394  0.74850042     0.32700
H458        H  0.30851575  0.82740169  0.69056236     0.36700
H459        H  0.30418362  0.77053521  0.66823887     0.29400
H460        H  0.16726178  0.83124301  0.84231260     0.33600
H461        H  0.17833525  0.70335127  0.82758516     0.36500
H462        H  0.16706258  0.80735947  0.66159562     0.29100
H463        H  0.32955757  0.77047744  0.69294676     0.42000
H464        H  0.34446547  0.81446260  0.81179001     0.32000
H465        H  0.30998165  0.86959527  0.76490190     0.39600
H466        H  0.15936504  0.71597044  0.76103459     0.31500
H467        H  0.28716960  0.74717373  0.85355141     0.31500
H468        H  0.18087388  0.80006809  0.85143537     0.31800
Zr469      Zr  0.76627671  0.24870288  0.79584052     2.17500
O470        O  0.80299973  0.24653771  0.83754041    -0.50600
O471        O  0.77101120  0.19502153  0.78836311    -0.73800
O472        O  0.74433680  0.23510276  0.84432536    -0.80500
O473        O  0.82914229  0.27430280  0.74039438    -0.82300
O474        O  0.69665987  0.25360928  0.84914828    -0.77900
O475        O  0.81998388  0.25354636  0.78676821    -0.89500
O476        O  0.73888883  0.18197345  0.75039882    -0.75500
O477        O  0.71513028  0.23523845  0.78541681    -0.85000
O478        O  0.76536748  0.24005309  0.74265928    -0.84700
O479        O  0.73619867  0.29000374  0.81217909    -0.71400
O480        O  0.78152159  0.29459032  0.77206076    -0.83600
Zr481      Zr  0.69894667  0.31460609  0.72367437     2.26400
Zr482      Zr  0.68460233  0.27694495  0.79983077     2.06300
Zr483      Zr  0.77962432  0.28615365  0.71855996     2.10000
Zr484      Zr  0.71400063  0.22701046  0.73234381     1.78800
O485        O  0.81476278  0.32571500  0.70377757    -0.92400
O486        O  0.67297370  0.19524093  0.75103972    -0.40200
O487        O  0.72817264  0.27278289  0.70716686    -0.76800
O488        O  0.68285649  0.26806519  0.74624585    -0.95500
O489        O  0.69985434  0.32334274  0.77662962    -0.88800
O490        O  0.75003257  0.32793894  0.73433367    -0.91700
C491        C  0.75884165  0.17564408  0.77072665     1.02100
C492        C  0.83784313  0.26294554  0.76588695     1.15000
C493        C  0.72002787  0.23946432  0.85940806     1.05800
O494        O  0.64609431  0.23890421  0.80934290    -0.93800
O495        O  0.63536937  0.29440595  0.78007056    -0.89600
O496        O  0.64531289  0.31544402  0.73403171    -0.82700
C497        C  0.62703118  0.30688081  0.75490690     1.12400
O498        O  0.78984316  0.33844517  0.82755403    -0.95800
Zr499      Zr  0.75130603  0.33560007  0.78776088     1.88900
O500        O  0.69970796  0.36860149  0.72948653    -0.72400
O501        O  0.66485556  0.31119074  0.83724584    -0.51700
O502        O  0.72805251  0.35513968  0.83331657    -0.96400
O503        O  0.79338715  0.36931355  0.77627645    -0.53600
O504        O  0.72919455  0.38177901  0.76941743    -0.73000
C505        C  0.71145757  0.38811168  0.74719728     0.99400
O506        O  0.66118762  0.32368404  0.68376989    -0.61800
O507        O  0.80189528  0.24946187  0.68505637    -0.56600
O508        O  0.71902106  0.32263461  0.67346838    -0.93300
O509        O  0.76605523  0.30357826  0.66732805    -0.91700
O510        O  0.73168940  0.20103457  0.68773822    -0.92000
O511        O  0.67663642  0.22177731  0.69186850    -0.90800
C512        C  0.74225749  0.31706366  0.65732349     1.18200
H513        H  0.77925972  0.22458600  0.73708267     0.34200
H514        H  0.66256947  0.26276557  0.73983099     0.45000
H515        H  0.75595500  0.34573054  0.72327628     0.38600
H516        H  0.73853408  0.29268102  0.83376799     0.35000
H517        H  0.67388038  0.17717110  0.73842397     0.26800
H518        H  0.64854675  0.29984346  0.84762259     0.32800
H519        H  0.71427253  0.37112075  0.82611357     0.38700
H520        H  0.75400732  0.20357594  0.68813417     0.33100
H521        H  0.78714662  0.24735382  0.66818486     0.32000
H522        H  0.83103887  0.31547738  0.69263328     0.33700
H523        H  0.78714184  0.38047052  0.75775860     0.32700
H524        H  0.67446821  0.24216133  0.68325483     0.36700
H525        H  0.66635583  0.34317677  0.67428262     0.29400
H526        H  0.80096684  0.22643272  0.84692201     0.33600
H527        H  0.78820506  0.35877884  0.83588166     0.36500
H528        H  0.81955174  0.25977011  0.67584062     0.29100
H529        H  0.66466710  0.30864481  0.66791034     0.42000
H530        H  0.63728800  0.24415900  0.82915934     0.32000
H531        H  0.67971040  0.18835254  0.77141927     0.39600
H532        H  0.80980292  0.35608994  0.76937786     0.31500
H533        H  0.68119666  0.31293215  0.85264692     0.31500
H534        H  0.79559160  0.26056346  0.85294488     0.31800
Zr535      Zr  0.77133735  0.81687433  0.78066038     2.17500
O536        O  0.76864148  0.85733085  0.81700585    -0.50600
O537        O  0.82622936  0.81523643  0.77977889    -0.73800
O538        O  0.78122032  0.80051095  0.83212508    -0.80500
O539        O  0.75729994  0.87485680  0.71749026    -0.82300
O540        O  0.75879002  0.75528247  0.84006637    -0.77900
O541        O  0.77908383  0.86771868  0.76390930    -0.89500
O542        O  0.84208811  0.78180256  0.74520769    -0.75500
O543        O  0.78428451  0.76581447  0.77563119    -0.85000
O544        O  0.78375968  0.81166443  0.72871033    -0.84700
O545        O  0.72700326  0.78998884  0.79673996    -0.71400
O546        O  0.72670234  0.83191594  0.75342426    -0.83600
Zr547      Zr  0.70786900  0.74653938  0.71082590     2.26400
Zr548      Zr  0.73989037  0.73839682  0.79068365     2.06300
Zr549      Zr  0.73908106  0.82572461  0.70109120     2.10000
Zr550      Zr  0.79610302  0.76041926  0.72338420     1.78800
O551        O  0.70505599  0.86565368  0.68524368    -0.92400
O552        O  0.82537612  0.71791464  0.74198369    -0.40200
O553        O  0.75178462  0.77419922  0.69449276    -0.76800
O554        O  0.75257226  0.73193539  0.73841702    -0.95500
O555        O  0.69525382  0.75210616  0.76268894    -0.88800
O556        O  0.69513804  0.79763606  0.71593964    -0.91700
C557        C  0.84711608  0.80126784  0.76574699     1.02100
C558        C  0.77164436  0.88418365  0.74110541     1.15000
C559        C  0.77344064  0.77845934  0.84911095     1.05800
O560        O  0.77639910  0.70103857  0.80759862    -0.93800
O561        O  0.72052393  0.68925548  0.77530493    -0.89600
O562        O  0.69781175  0.69641186  0.72928582    -0.82700
C563        C  0.70504744  0.68006129  0.75231074     1.12400
O564        O  0.67361874  0.84321118  0.80357448    -0.95800
Zr565      Zr  0.68293466  0.80335714  0.76780685     1.88900
O566        O  0.65274140  0.74566617  0.71325814    -0.72400
O567        O  0.70197849  0.72363053  0.82795544    -0.51700
O568        O  0.65685850  0.78740706  0.81385830    -0.96400
O569        O  0.65275109  0.84295298  0.74416268    -0.53600
O570        O  0.63813711  0.77742366  0.75003630    -0.73000
C571        C  0.63252112  0.75788968  0.72982325     0.99400
O572        O  0.71496827  0.70704725  0.67390561    -0.61800
O573        O  0.77718436  0.83807751  0.66307751    -0.56600
O574        O  0.69484624  0.76516145  0.66071378    -0.93300
O575        O  0.71561635  0.81122013  0.65294074    -0.91700
O576        O  0.82603051  0.77891198  0.68084944    -0.92000
O577        O  0.80029027  0.72155410  0.68547026    -0.90800
C578        C  0.70034350  0.78831746  0.64421953     1.18200
H579        H  0.80066761  0.82435386  0.72308553     0.34200
H580        H  0.75703021  0.71111643  0.73466006     0.45000
H581        H  0.67798865  0.80272944  0.70321000     0.38600
H582        H  0.72263039  0.79423491  0.81767778     0.35000
H583        H  0.84545847  0.72013102  0.73223453     0.26800
H584        H  0.71280559  0.70983716  0.84195605     0.32800
H585        H  0.64310903  0.77102104  0.80772196     0.38700
H586        H  0.84285231  0.76449951  0.67898278     0.33100
H587        H  0.78552535  0.81859799  0.65701718     0.32000
H588        H  0.71359751  0.87319381  0.66589819     0.33700
H589        H  0.64248847  0.83386881  0.72647919     0.32700
H590        H  0.78469020  0.72657985  0.66999630     0.36700
H591        H  0.72224868  0.71699501  0.65515583     0.29400
H592        H  0.78845704  0.85743758  0.82775006     0.33600
H593        H  0.65128022  0.84546804  0.80414783     0.36500
H594        H  0.76552525  0.84506489  0.64510724     0.29100
H595        H  0.73289617  0.69584996  0.68140626     0.42000
H596        H  0.79530043  0.71239479  0.81156550     0.32000
H597        H  0.82928869  0.72209795  0.76364152     0.39600
H598        H  0.66785290  0.85686112  0.73525963     0.31500
H599        H  0.69848866  0.74173690  0.84004259     0.31500
H600        H  0.75368004  0.85080194  0.83239364     0.31800
C601        C  0.51007114  0.71528969  0.71212838     0.81000
N602        N  0.50680338  0.69557598  0.68934191    -0.77300
C603        C  0.48013085  0.68156595  0.68440417     0.83400
N604        N  0.45614139  0.68743786  0.70239922    -0.77300
C605        C  0.45867352  0.70748158  0.72526775     0.83500
N606        N  0.48587285  0.72138047  0.73010274    -0.79000
C607        C  0.27287307  0.50859679  0.69825423     0.81000
N608        N  0.26797251  0.53487401  0.71237037    -0.77300
C609        C  0.28206490  0.56002133  0.70225628     0.83400
N610        N  0.30121338  0.55848386  0.67848216    -0.77300
C611        C  0.30651890  0.53239904  0.66454958     0.83500
N612        N  0.29211587  0.50743787  0.67441294    -0.79000
C613        C  0.50483588  0.33634400  0.71876299     0.81000
N614        N  0.50338066  0.35261279  0.69250090    -0.77300
C615        C  0.47668380  0.36410941  0.68228851     0.83400
N616        N  0.45122766  0.35894331  0.69885773    -0.77300
C617        C  0.45221346  0.34253557  0.72509500     0.83500
N618        N  0.47915745  0.33131056  0.73501191    -0.79000
C619        C  0.67093465  0.50812350  0.72142600     0.81000
N620        N  0.67856929  0.53421047  0.73532593    -0.77300
C621        C  0.66500627  0.56029406  0.72624605     0.83400
N622        N  0.64420265  0.55976627  0.70318159    -0.77300
C623        C  0.63675055  0.53390455  0.68941102     0.83500
N624        N  0.65014162  0.50844685  0.69869908    -0.79000
C625        C  0.50872326  0.35523315  0.27891734     0.81000
N626        N  0.50969002  0.37095480  0.30508540    -0.77300
C627        C  0.48398322  0.37961833  0.31904922     0.83400
N628        N  0.45682400  0.37258124  0.30641905    -0.77300
C629        C  0.45496484  0.35709107  0.28011550     0.83500
N630        N  0.48115477  0.34807948  0.26646843    -0.79000
C631        C  0.68828854  0.50257899  0.31316761     0.81000
N632        N  0.66730958  0.50562057  0.33519489    -0.77300
C633        C  0.66073200  0.53247007  0.34690966     0.83400
N634        N  0.67566645  0.55699372  0.33669210    -0.77300
C635        C  0.69714715  0.55470318  0.31487332     0.83500
N636        N  0.70336627  0.52740874  0.30286616    -0.79000
C637        C  0.50669873  0.74955062  0.32128961     0.81000
N638        N  0.47974551  0.76422457  0.31803458    -0.77300
C639        C  0.45420319  0.75350140  0.33197272     0.83400
N640        N  0.45629902  0.72823492  0.34930253    -0.77300
C641        C  0.48298981  0.71342951  0.35256321     0.83500
N642        N  0.50796015  0.72407951  0.33830806    -0.79000
C643        C  0.27984649  0.50835951  0.30406629     0.81000
N644        N  0.26309640  0.53311380  0.29723209    -0.77300
C645        C  0.27153363  0.56009801  0.30863422     0.83400
N646        N  0.29657457  0.56202806  0.32670203    -0.77300
C647        C  0.31364578  0.53763239  0.33288767     0.83500
N648        N  0.30510984  0.51101041  0.32159357    -0.79000
C649        C  0.67243210  0.73340653  0.47778018     0.81000
N650        N  0.65357234  0.70976075  0.48140274    -0.77300
C651        C  0.63978052  0.70402398  0.50805505     0.83400
N652        N  0.64483050  0.72252264  0.53168667    -0.77300
C653        C  0.66371613  0.74652102  0.52876428     0.83500
N654        N  0.67760270  0.75182018  0.50166196    -0.79000
C655        C  0.69945237  0.34306748  0.48298043     0.81000
N656        N  0.67407839  0.36032166  0.48303396    -0.77300
C657        C  0.66270029  0.37088235  0.50933237     0.83400
N658        N  0.67736885  0.36432047  0.53573545    -0.77300
C659        C  0.70286783  0.34725959  0.53633107     0.83500
N660        N  0.71372945  0.33640098  0.50976240    -0.79000
C661        C  0.27403749  0.71806301  0.48455896     0.81000
N662        N  0.29848917  0.69995790  0.48653610    -0.77300
C663        C  0.30839867  0.68897890  0.51339975     0.83400
N664        N  0.29364820  0.69639061  0.53904436    -0.77300
C665        C  0.26937995  0.71509454  0.53790690     0.83500
N666        N  0.25953126  0.72602554  0.51048139    -0.79000
C667        C  0.25738659  0.35156941  0.47683218     0.81000
N668        N  0.28375685  0.36723524  0.47495245    -0.77300
C669        C  0.29733652  0.37816894  0.50011504     0.83400
N670        N  0.28436610  0.37294305  0.52740040    -0.77300
C671        C  0.25805500  0.35723495  0.53002370     0.83500
N672        N  0.24456599  0.34630049  0.50446931    -0.79000
O673        O  0.89810851  0.98208913  0.99889964    -0.85700
O674        O  0.07067919  0.99137900  0.00411278    -0.85900
O675        O  0.98687016  0.95139836  0.95510278    -0.87500
O676        O  0.98681059  0.94753214  0.05251426    -0.86300
O677        O  0.98083019  0.98072312  0.09124348    -0.85900
O678        O  0.98738591  0.98912297  0.91952501    -0.87300
O679        O  0.03592612  0.95332323  0.00160987    -0.85700
O680        O  0.93725480  0.94845442  0.00087786    -0.85300
Zr681      Zr  0.98514322  0.97462508  0.00454127     2.84300
O682        O  0.01293424  0.00427455  0.03785311    -1.07300
O683        O  0.95319056  0.00390259  0.97408359    -1.08000
C684        C  0.90896598  0.95540979  0.99881410     1.07400
C685        C  0.06337690  0.96361590  0.00122020     1.07300
C686        C  0.98813163  0.96129237  0.92753754     1.10300
C687        C  0.98433896  0.95407599  0.08080099     1.08100
H688        H  0.02812815  0.99660036  0.96324070     0.33700
O689        O  0.01460841  0.00756556  0.97607020    -1.28300
H690        H  0.93906006  0.98701307  0.04654036     0.33300
O691        O  0.95140188  0.00089699  0.03506065    -1.29900
O692        O  0.06499654  0.08697461  0.01199409    -0.85700
O693        O  0.89327848  0.07839900  0.00460361    -0.87200
O694        O  0.03334308  0.03903760  0.92282748    -0.85800
O695        O  0.02744466  0.02954189  0.09516047    -0.85800
O696        O  0.92937289  0.02732688  0.09111620    -0.85500
O697        O  0.93354300  0.03237182  0.91928524    -0.85300
O698        O  0.98091501  0.12103748  0.95921260    -0.85700
O699        O  0.97743679  0.11719483  0.05982316    -0.85200
O700        O  0.98431651  0.08563218  0.92217550    -0.86200
O701        O  0.97690749  0.07852144  0.09451982    -0.85400
O702        O  0.06879813  0.04267830  0.96115625    -0.85800
O703        O  0.89579686  0.03054740  0.95485018    -0.85500
O704        O  0.89402789  0.02620518  0.05276630    -0.85200
O705        O  0.06520216  0.03104244  0.05945159    -0.85600
O706        O  0.02702681  0.12185739  0.00979497    -0.85900
O707        O  0.92756527  0.11694818  0.00872629    -0.87200
Zr708      Zr  0.04233481  0.03757082  0.00924780     2.83100
Zr709      Zr  0.92048977  0.03137469  0.00442274     2.83500
Zr710      Zr  0.98283668  0.03669426  0.94555373     2.84100
Zr711      Zr  0.97933263  0.03101109  0.06804872     2.83400
Zr712      Zr  0.97846892  0.09504428  0.00890522     2.84200
O713        O  0.94842480  0.06164124  0.03740994    -1.07800
O714        O  0.01080800  0.06707490  0.97851972    -1.07300
C715        C  0.05525511  0.11408816  0.01117041     1.07400
C716        C  0.90030019  0.10629949  0.00653357     1.10000
C717        C  0.06085126  0.04142163  0.93298848     1.07500
C718        C  0.05548436  0.02901767  0.08697427     1.07900
C719        C  0.90181726  0.02553249  0.08109030     1.07500
C720        C  0.90532485  0.03023416  0.92724112     1.07000
C721        C  0.98362347  0.11283025  0.93122216     1.07500
C722        C  0.97672739  0.10658979  0.08731887     1.07000
H723        H  0.93726938  0.07691175  0.96287300     0.33700
O724        O  0.95011950  0.06472492  0.97573963    -1.28900
H725        H  0.02144286  0.07681062  0.05364850     0.33700
O726        O  0.00953268  0.06468192  0.03999782    -1.30300
O727        O  0.47889893  0.60754700  0.55901684    -0.85700
O728        O  0.48108142  0.43883591  0.55096915    -0.85900
O729        O  0.42708826  0.52463455  0.58599664    -0.87500
O730        O  0.52533628  0.52337380  0.59402188    -0.86300
O731        O  0.56476407  0.52712869  0.56047763    -0.85900
O732        O  0.39253649  0.52461575  0.54674083    -0.87300
O733        O  0.47531107  0.47346011  0.58843782    -0.85700
O734        O  0.47760309  0.56911941  0.59361603    -0.85300
Zr735      Zr  0.47798797  0.52284817  0.56538414     2.84300
O736        O  0.51110862  0.49478113  0.53600051    -1.07300
O737        O  0.44872398  0.55462119  0.53486136    -1.08000
C738        C  0.47807790  0.59712775  0.58646361     1.07400
C739        C  0.47755568  0.44642702  0.57906842     1.07300
C740        C  0.39986382  0.52513354  0.57504267     1.10300
C741        C  0.55379023  0.52580804  0.58763153     1.08100
H742        H  0.43599894  0.48115848  0.54255560     0.33700
O743        O  0.44947474  0.49422240  0.53141516    -1.28300
H744        H  0.52171327  0.56728669  0.55295248     0.33300
O745        O  0.50997831  0.55539382  0.53893557    -1.29900
O746        O  0.48411754  0.44585083  0.45043484    -0.85700
O747        O  0.48400005  0.61471232  0.46059292    -0.87200
O748        O  0.39682065  0.47803910  0.49486158    -0.85800
O749        O  0.56802156  0.47939674  0.50952035    -0.85800
O750        O  0.56634051  0.57733525  0.51181078    -0.85500
O751        O  0.39508065  0.57413177  0.50466312    -0.85300
O752        O  0.43756906  0.53315039  0.41515320    -0.85700
O753        O  0.53669107  0.53482656  0.42236833    -0.85200
O754        O  0.39897587  0.53153540  0.44981751    -0.86200
O755        O  0.57080697  0.53114099  0.46191392    -0.85400
O756        O  0.43306263  0.44131153  0.49778218    -0.85800
O757        O  0.43131712  0.61089514  0.50803240    -0.85500
O758        O  0.52863685  0.61253411  0.51200533    -0.85200
O759        O  0.53255689  0.44228377  0.50264717    -0.85600
O760        O  0.48801264  0.48479630  0.41614321    -0.85900
O761        O  0.48758645  0.58236300  0.42098988    -0.87200
Zr762      Zr  0.48260334  0.46621215  0.50173804     2.83100
Zr763      Zr  0.48066614  0.58683201  0.50813413     2.83500
Zr764      Zr  0.42110658  0.52643451  0.50008775     2.84100
Zr765      Zr  0.54283490  0.52776470  0.50922838     2.83400
Zr766      Zr  0.48568785  0.53170866  0.44340190     2.84200
O767        O  0.51389361  0.55959909  0.47815073    -1.07800
O768        O  0.45405183  0.49860354  0.47035825    -1.07300
C769        C  0.48645121  0.45677500  0.42322860     1.07400
C770        C  0.48619385  0.60896988  0.43207079     1.10000
C771        C  0.40535469  0.45056313  0.49536227     1.07500
C772        C  0.56008783  0.45179589  0.50643071     1.07900
C773        C  0.55665371  0.60453747  0.51258011     1.07500
C774        C  0.40356357  0.60160617  0.50727844     1.07000
C775        C  0.40919383  0.53352182  0.42252227     1.07500
C776        C  0.56386288  0.53368691  0.43351399     1.07000
H777        H  0.44041714  0.57271680  0.46069073     0.33700
O778        O  0.45242628  0.55938968  0.47314854    -1.28900
H779        H  0.52800350  0.48809896  0.46241932     0.33700
O780        O  0.51436866  0.49942664  0.47480295    -1.30300
C781        C  0.36104261  0.42710930  0.46956489     0.24400
C782        C  0.38075781  0.42837391  0.49463973    -0.23700
C783        C  0.37362777  0.41232884  0.52114425     0.19300
C784        C  0.34654122  0.39604512  0.52301759     0.24300
C785        C  0.32647018  0.39482294  0.49797170    -0.23700
C786        C  0.33436440  0.41013267  0.47101038     0.19200
F787        F  0.31552792  0.41006307  0.44651947    -0.13600
F788        F  0.36713026  0.44318956  0.44400544    -0.16000
F789        F  0.33982469  0.38195152  0.54958020    -0.16000
F790        F  0.39196469  0.41406053  0.54594553    -0.13600
C791        C  0.33305257  0.64207652  0.53251362     0.24400
C792        C  0.33386739  0.66773492  0.51385987    -0.23700
C793        C  0.35803835  0.67165812  0.49347528     0.19300
C794        C  0.38087223  0.65028607  0.49170569     0.24300
C795        C  0.37967619  0.62432153  0.50973833    -0.23700
C796        C  0.35572973  0.62044614  0.53033183     0.19200
F797        F  0.35449409  0.59585182  0.54855599    -0.13600
F798        F  0.30954914  0.63718418  0.55171674    -0.16000
F799        F  0.40360271  0.65441624  0.47151758    -0.16000
F800        F  0.35942893  0.69610269  0.47501193    -0.13600
C801        C  0.63141031  0.41188029  0.53194467     0.24400
C802        C  0.63534231  0.39046926  0.50915873    -0.23700
C803        C  0.61325778  0.38867147  0.48588370     0.19300
C804        C  0.58814921  0.40791221  0.48538660     0.24300
C805        C  0.58484995  0.42959075  0.50785166    -0.23700
C806        C  0.60658841  0.43120670  0.53116328     0.19200
F807        F  0.60383324  0.45177679  0.55326679    -0.13600
F808        F  0.65230196  0.41521703  0.55437253    -0.16000
F809        F  0.56784183  0.40627709  0.46217995    -0.16000
F810        F  0.61599635  0.36843033  0.46344732    -0.13600
C811        C  0.59357942  0.67880875  0.52918564     0.24400
C812        C  0.61946299  0.67781145  0.51081027    -0.23700
C813        C  0.62492273  0.65199873  0.49371184     0.19300
C814        C  0.60491914  0.62778880  0.49500257     0.24300
C815        C  0.57917054  0.62883589  0.51343483    -0.23700
C816        C  0.57368512  0.65449947  0.53056978     0.19200
F817        F  0.54875815  0.65622738  0.54835499    -0.13600
F818        F  0.58657352  0.70390292  0.54450166    -0.16000
F819        F  0.60983590  0.60397043  0.47696419    -0.16000
F820        F  0.64946781  0.65018613  0.47542357    -0.13600
C821        C  0.36648646  0.52363910  0.34837583     0.24400
C822        C  0.33950182  0.53915762  0.35417223    -0.23700
C823        C  0.33647654  0.55429020  0.38162853     0.19300
C824        C  0.35965839  0.55323723  0.40333474     0.24300
C825        C  0.38623844  0.53678949  0.39811914    -0.23700
C826        C  0.38978301  0.52260484  0.37011686     0.19200
F827        F  0.41519935  0.50671992  0.36428642    -0.13600
F828        F  0.37017827  0.50929878  0.32173136    -0.16000
F829        F  0.35603843  0.56825991  0.42960358    -0.16000
F830        F  0.31035246  0.56872854  0.38819474    -0.13600
C831        C  0.47066919  0.68675121  0.40063557     0.24400
C832        C  0.48485461  0.68649807  0.37234898    -0.23700
C833        C  0.50032548  0.66055210  0.36354901     0.19300
C834        C  0.50048536  0.63497766  0.38245596     0.24300
C835        C  0.48618884  0.63534748  0.41099894    -0.23700
C836        C  0.47162839  0.66181055  0.41980399     0.19200
F837        F  0.45761668  0.66360586  0.44696804    -0.13600
F838        F  0.45624655  0.71160782  0.41013045    -0.16000
F839        F  0.51487571  0.61011488  0.37294818    -0.16000
F840        F  0.51456306  0.65964302  0.33636929    -0.13600
C841        C  0.61581616  0.55763444  0.36969659     0.24400
C842        C  0.63723433  0.53446637  0.37036606    -0.23700
C843        C  0.63492457  0.51185278  0.39262226     0.19300
C844        C  0.61134893  0.51208869  0.41352835     0.24300
C845        C  0.58922489  0.53448803  0.41207113    -0.23700
C846        C  0.59156801  0.55729020  0.39005839     0.19200
F847        F  0.57057255  0.57932650  0.38852109    -0.13600
F848        F  0.61778389  0.57999534  0.34874587    -0.16000
F849        F  0.60950146  0.48976680  0.43454531    -0.16000
F850        F  0.65563193  0.48952641  0.39423904    -0.13600
C851        C  0.50949063  0.43802609  0.37553681     0.24400
C852        C  0.48699846  0.43562849  0.39785889    -0.23700
C853        C  0.46400052  0.41407042  0.39475932     0.19300
C854        C  0.46303628  0.39568542  0.36929373     0.24300
C855        C  0.48557834  0.39800911  0.34683322    -0.23700
C856        C  0.50909089  0.41909592  0.35054910     0.19200
F857        F  0.53103753  0.42238420  0.32931750    -0.13600
F858        F  0.53184678  0.45884656  0.37786721    -0.16000
F859        F  0.43999684  0.37566450  0.36664568    -0.16000
F860        F  0.44164413  0.41177376  0.41571636    -0.13600
C861        C  0.62456989  0.51833345  0.63667762     0.24400
C862        C  0.61589672  0.53315024  0.66314734    -0.23700
C863        C  0.58667749  0.54521685  0.66486864     0.19300
C864        C  0.56633848  0.54240355  0.64050641     0.24300
C865        C  0.57519546  0.52808816  0.61363975    -0.23700
C866        C  0.60462762  0.51624605  0.61199724     0.19200
F867        F  0.61388690  0.50186588  0.58684475    -0.13600
F868        F  0.65249293  0.50584513  0.63468742    -0.16000
F869        F  0.53804629  0.55394397  0.64316533    -0.16000
F870        F  0.57739302  0.55857987  0.69063053    -0.13600
C871        C  0.45213675  0.40417159  0.64960773     0.24400
C872        C  0.47568131  0.38332876  0.65417871    -0.23700
C873        C  0.49897091  0.38223421  0.63227981     0.19300
C874        C  0.49896102  0.40176286  0.60702835     0.24300
C875        C  0.47575420  0.42286738  0.60305277    -0.23700
C876        C  0.45238090  0.42378568  0.62460733     0.19200
F877        F  0.43000423  0.44439656  0.62190681    -0.13600
F878        F  0.42946956  0.40675876  0.67008249    -0.16000
F879        F  0.52274430  0.40141428  0.58761676    -0.16000
F880        F  0.52218594  0.36263793  0.63549891    -0.13600
C881        C  0.32820514  0.50876859  0.61829081     0.24400
C882        C  0.32947250  0.53105339  0.64049007    -0.23700
C883        C  0.35352796  0.55187739  0.63998544     0.19300
C884        C  0.37624015  0.54988576  0.61844499     0.24300
C885        C  0.37520621  0.52737341  0.59678446    -0.23700
C886        C  0.35071350  0.50731887  0.59620961     0.19200
F887        F  0.34902784  0.48594394  0.57472891    -0.13600
F888        F  0.30516633  0.48856760  0.61777430    -0.16000
F889        F  0.39910525  0.57030806  0.61844379    -0.16000
F890        F  0.35582709  0.57369525  0.66089872    -0.13600
C891        C  0.46919854  0.61018975  0.64123603     0.24400
C892        C  0.47780261  0.61898135  0.61160625    -0.23700
C893        C  0.48585462  0.64910178  0.60627089     0.19300
C894        C  0.48632493  0.66941952  0.63001201     0.24300
C895        C  0.47766315  0.66048225  0.65928653    -0.23700
C896        C  0.46858679  0.63094582  0.66465169     0.19200
F897        F  0.45987981  0.62202290  0.69281610    -0.13600
F898        F  0.46083571  0.58164486  0.64763179    -0.16000
F899        F  0.49461721  0.69813591  0.62426745    -0.16000
F900        F  0.49329169  0.65912293  0.57811216    -0.13600
C901        C  0.65883234  0.77650461  0.60823883     0.24400
C902        C  0.68839089  0.78721186  0.61290723    -0.23700
C903        C  0.70779107  0.79031775  0.58795713     0.19300
C904        C  0.69893649  0.77935718  0.55950208     0.24300
C905        C  0.67057265  0.76496051  0.55584930    -0.23700
C906        C  0.64998492  0.76532585  0.58015838     0.19200
F907        F  0.62175734  0.75335317  0.57739343    -0.13600
F908        F  0.63914213  0.77503123  0.63166985    -0.16000
F909        F  0.71922235  0.78042266  0.53649878    -0.16000
F910        F  0.73636629  0.80108853  0.59182942    -0.13600
C911        C  0.66451793  0.64331988  0.74061795     0.24400
C912        C  0.69400268  0.64873715  0.75149442    -0.23700
C913        C  0.71289525  0.62422198  0.75819649     0.19300
C914        C  0.70297406  0.59492015  0.75209217     0.24300
C915        C  0.67408024  0.58982482  0.73893226    -0.23700
C916        C  0.65456998  0.61440436  0.73474075     0.19200
F917        F  0.62583369  0.61070436  0.72406130    -0.13600
F918        F  0.64538743  0.66639253  0.73479524    -0.16000
F919        F  0.72226318  0.57189947  0.75750411    -0.16000
F920        F  0.74161742  0.62871558  0.76855036    -0.13600
C921        C  0.55079740  0.73629134  0.74604334     0.24400
C922        C  0.54020092  0.72917742  0.71686250    -0.23700
C923        C  0.55985965  0.73286476  0.69199814     0.19300
C924        C  0.58967247  0.74239985  0.69631534     0.24300
C925        C  0.60056463  0.74879663  0.72544950    -0.23700
C926        C  0.58074403  0.74610474  0.75029257     0.19200
F927        F  0.59075124  0.75159737  0.77887317    -0.13600
F928        F  0.53278089  0.73227191  0.77061981    -0.16000
F929        F  0.60786557  0.74558998  0.67184051    -0.16000
F930        F  0.55031622  0.72707426  0.66330580    -0.13600
C931        C  0.72513837  0.35432064  0.61911112     0.24400
C932        C  0.73978470  0.32712991  0.62525591    -0.23700
C933        C  0.74636510  0.30827322  0.60094160     0.19300
C934        C  0.73579067  0.31532237  0.57146346     0.24300
C935        C  0.71846854  0.34132246  0.56599491    -0.23700
C936        C  0.71465519  0.36134405  0.59003784     0.19200
F937        F  0.70018554  0.38772067  0.58573874    -0.13600
F938        F  0.71976908  0.37374607  0.64180744    -0.16000
F939        F  0.74095651  0.29584684  0.54879646    -0.16000
F940        F  0.76103357  0.28211625  0.60603604    -0.13600
C941        C  0.55531764  0.31429718  0.70845459     0.24400
C942        C  0.53452254  0.32499753  0.72957018    -0.23700
C943        C  0.54313237  0.32619673  0.76039434     0.19300
C944        C  0.57293873  0.31902848  0.76942922     0.24300
C945        C  0.59435416  0.31057993  0.74768284    -0.23700
C946        C  0.58471059  0.30691184  0.71742964     0.19200
F947        F  0.60384283  0.29589886  0.69636621    -0.13600
F948        F  0.54710025  0.31076421  0.67897953    -0.16000
F949        F  0.58110140  0.32153858  0.79902264    -0.16000
F950        F  0.52321400  0.33573333  0.78147017    -0.13600
C951        C  0.70219611  0.44081534  0.76474634     0.24400
C952        C  0.70412250  0.41990728  0.74116243    -0.23700
C953        C  0.69825592  0.42946931  0.71130507     0.19300
C954        C  0.68940819  0.45864081  0.70515307     0.24300
C955        C  0.68557636  0.47918909  0.72873224    -0.23700
C956        C  0.69264673  0.47020040  0.75861512     0.19200
F957        F  0.68850419  0.48909502  0.78201539    -0.13600
F958        F  0.70801934  0.43244198  0.79388015    -0.16000
F959        F  0.68402616  0.46658154  0.67579931    -0.16000
F960        F  0.70104100  0.41050858  0.68776912    -0.13600
C961        C  0.23306795  0.75960303  0.60096464     0.24400
C962        C  0.23478099  0.73901049  0.62522771    -0.23700
C963        C  0.24387937  0.70966963  0.61943349     0.19300
C964        C  0.25320392  0.70154963  0.59052831     0.24300
C965        C  0.25409931  0.72274275  0.56669770    -0.23700
C966        C  0.24290593  0.75161415  0.57190794     0.19200
F967        F  0.24384611  0.77279176  0.54967246    -0.13600
F968        F  0.22457336  0.78816198  0.60597297    -0.16000
F969        F  0.26234893  0.67304592  0.58616935    -0.16000
F970        F  0.24514048  0.68912346  0.64228985    -0.13600
C971        C  0.39962438  0.75349575  0.76640125     0.24400
C972        C  0.37387919  0.73517667  0.76295083    -0.23700
C973        C  0.37770383  0.70586429  0.75301675     0.19300
C974        C  0.40582533  0.69617174  0.74283962     0.24300
C975        C  0.43105815  0.71558588  0.74264623    -0.23700
C976        C  0.42812625  0.74371608  0.75641466     0.19200
F977        F  0.45220708  0.76259422  0.75829508    -0.13600
F978        F  0.39682223  0.78158848  0.77714336    -0.16000
F979        F  0.40796464  0.66799889  0.73215400    -0.16000
F980        F  0.35367985  0.68687473  0.75208252    -0.13600
C981        C  0.24267715  0.62513691  0.73867499     0.24400
C982        C  0.26423247  0.64800056  0.73372759    -0.23700
C983        C  0.29223243  0.64084152  0.72068079     0.19300
C984        C  0.29881767  0.61166657  0.71325718     0.24300
C985        C  0.27663717  0.58921876  0.71605026    -0.23700
C986        C  0.24859969  0.59607108  0.72923000     0.19200
F987        F  0.22636499  0.57513506  0.73154240    -0.13600
F988        F  0.21525407  0.63111436  0.75101770    -0.16000
F989        F  0.32701669  0.60559725  0.70290445    -0.16000
F990        F  0.31338066  0.66211688  0.71457740    -0.13600
C991        C  0.24937998  0.35946359  0.61540987     0.24400
C992        C  0.23133928  0.33418606  0.62147716    -0.23700
C993        C  0.21916644  0.31821520  0.59691155     0.19300
C994        C  0.22660755  0.32627135  0.56693115     0.24300
C995        C  0.24617611  0.35064610  0.56101186    -0.23700
C996        C  0.25663773  0.36762166  0.58575219     0.19200
F997        F  0.27461176  0.39199514  0.58153401    -0.13600
F998        F  0.26055055  0.37625247  0.63837648    -0.16000
F999        F  0.21602083  0.30915420  0.54396969    -0.16000
F1000       F  0.20156759  0.29374796  0.60192552    -0.13600
C1001       C  0.25514742  0.44459927  0.75105598     0.24400
C1002       C  0.24469447  0.42339560  0.73030306    -0.23700
C1003       C  0.23996640  0.43154705  0.69982076     0.19300
C1004       C  0.24723176  0.46022174  0.68974954     0.24300
C1005       C  0.25974513  0.48084461  0.71000442    -0.23700
C1006       C  0.26306627  0.47318258  0.74083651     0.19200
F1007       F  0.27631569  0.49246708  0.76044452    -0.13600
F1008       F  0.25965888  0.43702400  0.78064262    -0.16000
F1009       F  0.24285757  0.46766913  0.66008826    -0.16000
F1010       F  0.22881769  0.41146895  0.67976504    -0.13600
C1011       C  0.40196518  0.35986841  0.74312714     0.24400
C1012       C  0.42386351  0.33726659  0.74237643    -0.23700
C1013       C  0.41709046  0.30936904  0.75596457     0.19300
C1014       C  0.38757837  0.30322864  0.76646300     0.24300
C1015       C  0.36483272  0.32507475  0.76388409    -0.23700
C1016       C  0.37282777  0.35385916  0.75374557     0.19200
F1017       F  0.35182930  0.37592343  0.75270379    -0.13600
F1018       F  0.40855642  0.38774947  0.73273032    -0.16000
F1019       F  0.38063104  0.27532351  0.77660812    -0.16000
F1020       F  0.43822833  0.28743609  0.75709103    -0.13600
C1021       C  0.07619077  0.16340983  0.99308417     0.24400
C1022       C  0.07862835  0.13787816  0.01182444    -0.23700
C1023       C  0.10457815  0.13434523  0.03019859     0.19300
C1024       C  0.12753221  0.15587864  0.03005344     0.24300
C1025       C  0.12567555  0.18104219  0.01069976    -0.23700
C1026       C  0.09970339  0.18463286  0.99221561     0.19200
F1027       F  0.09699146  0.20868981  0.97340093    -0.13600
F1028       F  0.05167054  0.16715230  0.97463500    -0.16000
F1029       F  0.15221937  0.15133102  0.04807309    -0.16000
F1030       F  0.10785754  0.10985411  0.04834239    -0.13600
C1031       C  0.17311334  0.25398734  0.92917050     0.24400
C1032       C  0.19463098  0.24544949  0.95124322    -0.23700
C1033       C  0.22568381  0.24638190  0.94374008     0.19300
C1034       C  0.23483275  0.25342544  0.91411199     0.24300
C1035       C  0.21315676  0.26065961  0.89175809    -0.23700
C1036       C  0.18231640  0.26213970  0.89999158     0.19200
F1037       F  0.16084443  0.27093661  0.87953905    -0.13600
F1038       F  0.14303470  0.25411718  0.93567348    -0.16000
F1039       F  0.26462232  0.25117019  0.90687307    -0.16000
F1040       F  0.24713417  0.23848942  0.96450952    -0.13600
C1041       C  0.70792934  0.77227638  0.40952784     0.24400
C1042       C  0.70732482  0.74934677  0.38801359    -0.23700
C1043       C  0.69711525  0.72090719  0.39678038     0.19300
C1044       C  0.68639624  0.71570471  0.42598181     0.24300
C1045       C  0.68627710  0.73874272  0.44758217    -0.23700
C1046       C  0.69772894  0.76697594  0.43910927     0.19200
F1047       F  0.69765437  0.78995363  0.45884270    -0.13600
F1048       F  0.71664262  0.80032935  0.40148708    -0.16000
F1049       F  0.67572354  0.68798320  0.43269656    -0.16000
F1050       F  0.69719232  0.69801864  0.37689448    -0.13600
C1051       C  0.54715476  0.78798387  0.30845701     0.24400
C1052       C  0.53453592  0.75924892  0.30511738    -0.23700
C1053       C  0.55104389  0.73772611  0.28939405     0.19300
C1054       C  0.58001044  0.74409387  0.27847883     0.24300
C1055       C  0.59377358  0.77192221  0.28378110    -0.23700
C1056       C  0.57675415  0.79419692  0.29808210     0.19200
F1057       F  0.58963785  0.82102405  0.30425738    -0.13600
F1058       F  0.53204744  0.80914788  0.32399882    -0.16000
F1059       F  0.59511192  0.72247022  0.26357658    -0.16000
F1060       F  0.53955669  0.70983846  0.28571342    -0.13600
C1061       C  0.72348981  0.61966814  0.26555555     0.24400
C1062       C  0.73375417  0.63994538  0.28755169    -0.23700
C1063       C  0.73468427  0.63067208  0.31805526     0.19300
C1064       C  0.72402408  0.60234415  0.32665115     0.24300
C1065       C  0.71307886  0.58226942  0.30481650    -0.23700
C1066       C  0.71358481  0.59088961  0.27408271     0.19200
F1067       F  0.70166217  0.57261295  0.25273009    -0.13600
F1068       F  0.72063315  0.62860188  0.23617375    -0.16000
F1069       F  0.72293260  0.59503348  0.35659155    -0.16000
F1070       F  0.74430101  0.64977438  0.33977826    -0.13600
C1071       C  0.73049419  0.29521715  0.41917507     0.24400
C1072       C  0.73058699  0.31595804  0.39483864    -0.23700
C1073       C  0.72332866  0.34579669  0.40068729     0.19300
C1074       C  0.71411299  0.35449523  0.42950613     0.24300
C1075       C  0.71220194  0.33363072  0.45347836    -0.23700
C1076       C  0.72136170  0.30404256  0.44835027     0.19200
F1077       F  0.71983667  0.28340576  0.47109579    -0.13600
F1078       F  0.73765915  0.26623787  0.41442472    -0.16000
F1079       F  0.70702280  0.38353643  0.43399963    -0.16000
F1080       F  0.72478122  0.36659405  0.37808884    -0.13600
C1081       C  0.67907353  0.41951754  0.29921822     0.24400
C1082       C  0.70574401  0.41241833  0.28358836    -0.23700
C1083       C  0.72571307  0.43586988  0.27542089     0.19300
C1084       C  0.72032231  0.46518274  0.28489997     0.24300
C1085       C  0.69399720  0.47204181  0.30130174    -0.23700
C1086       C  0.67315952  0.44874055  0.30766585     0.19200
F1087       F  0.64691923  0.45382839  0.32268652    -0.13600
F1088       F  0.65845786  0.39813121  0.30673342    -0.16000
F1089       F  0.74166834  0.48641913  0.27930448    -0.16000
F1090       F  0.75107134  0.43040843  0.25912825    -0.13600
C1091       C  0.57178998  0.30836574  0.24447740     0.24400
C1092       C  0.59747366  0.32570450  0.25197915    -0.23700
C1093       C  0.59290492  0.35435780  0.26363377     0.19300
C1094       C  0.56376417  0.36473402  0.26955191     0.24300
C1095       C  0.53814711  0.34636195  0.26511086    -0.23700
C1096       C  0.54228313  0.31858248  0.25105211     0.19200
F1097       F  0.51811402  0.30055246  0.24544351    -0.13600
F1098       F  0.57533199  0.28071717  0.23290800    -0.16000
F1099       F  0.56073833  0.39274435  0.28047278    -0.16000
F1100       F  0.61693379  0.37223429  0.27012719    -0.13600
C1101       C  0.24075459  0.76288582  0.41824044     0.24400
C1102       C  0.24876741  0.74487417  0.39350739    -0.23700
C1103       C  0.26284592  0.71728828  0.39953295     0.19300
C1104       C  0.26958203  0.70838604  0.42912616     0.24300
C1105       C  0.26320926  0.72701780  0.45379629    -0.23700
C1106       C  0.24817113  0.75414037  0.44809395     0.19200
F1107       F  0.24168656  0.77274150  0.47117544    -0.13600
F1108       F  0.22673106  0.78946837  0.41358873    -0.16000
F1109       F  0.28239095  0.68114431  0.43347924    -0.16000
F1110       F  0.27031087  0.69859637  0.37678045    -0.13600
C1111       C  0.23378501  0.62455514  0.26682363     0.24400
C1112       C  0.23074502  0.64520860  0.29033875    -0.23700
C1113       C  0.23748208  0.63609687  0.32023038     0.19300
C1114       C  0.24881685  0.60756174  0.32628122     0.24300
C1115       C  0.25369044  0.58747511  0.30257337    -0.23700
C1116       C  0.24507526  0.59579973  0.27289885     0.19200
F1117       F  0.25053941  0.57733412  0.24941855    -0.13600
F1118       F  0.22909587  0.63330597  0.23761490    -0.16000
F1119       F  0.25659679  0.60008345  0.35523196    -0.16000
F1120       F  0.23498565  0.65558749  0.34338335    -0.13600
C1121       C  0.38786224  0.79226932  0.29164423     0.24400
C1122       C  0.36317716  0.78331714  0.30968890    -0.23700
C1123       C  0.36917890  0.76836794  0.33731348     0.19300
C1124       C  0.39883232  0.76007024  0.34534472     0.24300
C1125       C  0.42354535  0.76704364  0.32619474    -0.23700
C1126       C  0.41773022  0.78455526  0.29997139     0.19200
F1127       F  0.44066472  0.79256449  0.28115480    -0.13600
F1128       F  0.38294435  0.80645191  0.26470163    -0.16000
F1129       F  0.40307213  0.74443791  0.37158929    -0.16000
F1130       F  0.34605744  0.76098724  0.35625029    -0.13600
C1131       C  0.12202942  0.00136120  0.13358509     0.24400
C1132       C  0.12548253  0.02442791  0.15482718    -0.23700
C1133       C  0.10415904  0.04790744  0.15451824     0.19300
C1134       C  0.08068268  0.04863248  0.13306070     0.24300
C1135       C  0.07844475  0.02647213  0.11109187    -0.23700
C1136       C  0.09905697  0.00273364  0.11155432     0.19200
F1137       F  0.09715886  0.98106623  0.09037667    -0.13600
F1138       F  0.14161254  0.97809683  0.13314339    -0.16000
F1139       F  0.06100567  0.07187166  0.13268246    -0.16000
F1140       F  0.10613473  0.07050200  0.17465478    -0.13600
C1141       C  0.21627496  0.95436939  0.18040317     0.24400
C1142       C  0.21236905  0.97457427  0.20415783    -0.23700
C1143       C  0.22179865  0.96627063  0.23357775     0.19300
C1144       C  0.23247268  0.93724767  0.23952926     0.24300
C1145       C  0.23388318  0.91621886  0.21613318    -0.23700
C1146       C  0.22668004  0.92544059  0.18634195     0.19200
F1147       F  0.22820656  0.90589367  0.16314816    -0.13600
F1148       F  0.20881815  0.96233890  0.15148978    -0.16000
F1149       F  0.23851603  0.92883111  0.26860085    -0.16000
F1150       F  0.21817355  0.98529988  0.25696153    -0.13600
C1151       C  0.21832907  0.34571418  0.43523718     0.24400
C1152       C  0.24586150  0.33719332  0.44913254    -0.23700
C1153       C  0.26505699  0.31741942  0.43416799     0.19300
C1154       C  0.25739725  0.30679211  0.40556623     0.24300
C1155       C  0.23059807  0.31612693  0.39091497    -0.23700
C1156       C  0.21064604  0.33509942  0.40623379     0.19200
F1157       F  0.18514638  0.34525241  0.39217441    -0.13600
F1158       F  0.20025991  0.36613760  0.44852679    -0.16000
F1159       F  0.27697241  0.28831245  0.39144646    -0.16000
F1160       F  0.29215182  0.30955863  0.44669987    -0.13600
C1161       C  0.38888246  0.31766149  0.24015563     0.24400
C1162       C  0.36395290  0.33403673  0.25069982    -0.23700
C1163       C  0.36964590  0.36011797  0.26722365     0.19300
C1164       C  0.39925306  0.36831155  0.27516106     0.24300
C1165       C  0.42420715  0.35045186  0.26717391    -0.23700
C1166       C  0.41872791  0.32556922  0.24862790     0.19200
F1167       F  0.44195235  0.30772443  0.24033585    -0.13600
F1168       F  0.38431389  0.29284151  0.22341481    -0.16000
F1169       F  0.40329004  0.39361035  0.29133074    -0.16000
F1170       F  0.34631469  0.37747768  0.27641223    -0.13600
C1171       C  0.27544409  0.45407207  0.31553024     0.24400
C1172       C  0.26980764  0.47805363  0.29541556    -0.23700
C1173       C  0.25567018  0.47231332  0.26738266     0.19300
C1174       C  0.24768375  0.44299359  0.25953765     0.24300
C1175       C  0.25376430  0.41899361  0.27966701    -0.23700
C1176       C  0.26755317  0.42510502  0.30783694     0.19200
F1177       F  0.27332555  0.40303703  0.32844327    -0.13600
F1178       F  0.28838608  0.45854651  0.34315883    -0.16000
F1179       F  0.23482613  0.43808532  0.23198137    -0.16000
F1180       F  0.25069740  0.49483291  0.24712553    -0.13600
C1181       C  0.23551598  0.26283508  0.09735752     0.24400
C1182       C  0.23570253  0.24003374  0.11955506    -0.23700
C1183       C  0.22687869  0.21108699  0.11135601     0.19300
C1184       C  0.21497602  0.20568567  0.08249285     0.24300
C1185       C  0.21210245  0.22908044  0.06109438    -0.23700
C1186       C  0.22387977  0.25738306  0.06825554     0.19200
F1187       F  0.22140584  0.28048831  0.04821718    -0.13600
F1188       F  0.24355140  0.29110363  0.10475093    -0.16000
F1189       F  0.20503534  0.17778586  0.07591579    -0.16000
F1190       F  0.22827476  0.18834760  0.13192327    -0.13600
C1191       C  0.19936514  0.13748623  0.19696466     0.24400
C1192       C  0.21296890  0.14411536  0.22507230    -0.23700
C1193       C  0.22113401  0.12036101  0.24474769     0.19300
C1194       C  0.21492346  0.09071927  0.23677547     0.24300
C1195       C  0.19967351  0.08450584  0.20944302    -0.23700
C1196       C  0.19299237  0.10817279  0.18925781     0.19200
F1197       F  0.18012249  0.10301139  0.16172450    -0.13600
F1198       F  0.19178289  0.15935727  0.17674917    -0.16000
F1199       F  0.22265317  0.06835600  0.25632405    -0.16000
F1200       F  0.23366724  0.12582130  0.27234696    -0.13600
C1201       C  0.99345020  0.15410436  0.11323090     0.24400
C1202       C  0.97575098  0.12783149  0.11304041    -0.23700
C1203       C  0.95834769  0.12075495  0.13883517     0.19300
C1204       C  0.95870032  0.13908553  0.16421010     0.24300
C1205       C  0.97685679  0.16482862  0.16470922    -0.23700
C1206       C  0.99436847  0.17220240  0.13907005     0.19200
F1207       F  0.01229372  0.19693235  0.13905536    -0.13600
F1208       F  0.01078880  0.16160877  0.08896302    -0.16000
F1209       F  0.94230458  0.13084995  0.18893354    -0.16000
F1210       F  0.94083503  0.09590541  0.13955778    -0.13600
C1211       C  0.90042491  0.19170149  0.24800679     0.24400
C1212       C  0.92425257  0.21274571  0.24855591    -0.23700
C1213       C  0.91850609  0.24132626  0.26007681     0.19300
C1214       C  0.88892349  0.24931452  0.26857667     0.24300
C1215       C  0.86478990  0.22890255  0.26543090    -0.23700
C1216       C  0.87107896  0.19972185  0.25630680     0.19200
F1217       F  0.84840184  0.17922977  0.25427020    -0.13600
F1218       F  0.90528362  0.16353096  0.23824266    -0.16000
F1219       F  0.88341460  0.27768551  0.27733652    -0.16000
F1220       F  0.94080857  0.26229343  0.26056039    -0.13600
C1221       C  0.04369559  0.23979583  0.25941418     0.24400
C1222       C  0.03766719  0.21341823  0.24336023    -0.23700
C1223       C  0.06207979  0.19430476  0.23700795     0.19300
C1224       C  0.09189260  0.20259729  0.24385854     0.24300
C1225       C  0.09821058  0.22991566  0.25789846    -0.23700
C1226       C  0.07373730  0.24778723  0.26698037     0.19200
F1227       F  0.07898630  0.27391163  0.28138365    -0.13600
F1228       F  0.02086525  0.25882009  0.26596869    -0.16000
F1229       F  0.11477186  0.18398942  0.23622747    -0.16000
F1230       F  0.05721917  0.16762627  0.22349621    -0.13600
C1231       C  0.73341760  0.91913616  0.18207669     0.24400
C1232       C  0.72701188  0.91010603  0.21188172    -0.23700
C1233       C  0.72632976  0.93165583  0.23476301     0.19300
C1234       C  0.73557756  0.96116365  0.22848511     0.24300
C1235       C  0.74509883  0.96946508  0.19908793    -0.23700
C1236       C  0.74185686  0.94856263  0.17562584     0.19200
F1237       F  0.74821322  0.95624805  0.14647174    -0.13600
F1238       F  0.73267538  0.89901275  0.15932106    -0.16000
F1239       F  0.73757084  0.98075086  0.25161806    -0.16000
F1240       F  0.71923150  0.92358274  0.26363401    -0.13600
C1241       C  0.73848741  0.11332336  0.24329252     0.24400
C1242       C  0.75868025  0.13688907  0.23593955    -0.23700
C1243       C  0.78606630  0.12974425  0.22165987     0.19300
C1244       C  0.79246388  0.10049187  0.21354894     0.24300
C1245       C  0.77113728  0.07719298  0.21826849    -0.23700
C1246       C  0.74442634  0.08390945  0.23419878     0.19200
F1247       F  0.72337740  0.06243291  0.23997891    -0.13600
F1248       F  0.71226950  0.11882104  0.25814995    -0.16000
F1249       F  0.81960148  0.09549191  0.20015982    -0.16000
F1250       F  0.80690771  0.15118826  0.21503293    -0.13600
C1251       C  0.85725914  0.03351751  0.15386106     0.24400
C1252       C  0.82977006  0.01915014  0.14667120    -0.23700
C1253       C  0.82646665  0.00581748  0.11816775     0.19300
C1254       C  0.84985725  0.00778752  0.09682783     0.24300
C1255       C  0.87726856  0.02257079  0.10387199    -0.23700
C1256       C  0.88082333  0.03488349  0.13289127     0.19200
F1257       F  0.90678384  0.04916036  0.14080087    -0.13600
F1258       F  0.86135340  0.04640464  0.18130311    -0.16000
F1259       F  0.84559909  0.99529298  0.06923419    -0.16000
F1260       F  0.80001603  0.99223758  0.11035579    -0.13600
C1261       C  0.07356738  0.77207949  0.22140161     0.24400
C1262       C  0.09816040  0.77820063  0.20201820    -0.23700
C1263       C  0.09215357  0.78915852  0.17260404     0.19300
C1264       C  0.06242509  0.79541636  0.16329645     0.24300
C1265       C  0.03796840  0.79162859  0.18344894    -0.23700
C1266       C  0.04369154  0.77886429  0.21222849     0.19200
F1267       F  0.02078566  0.77527610  0.23237153    -0.13600
F1268       F  0.07866411  0.76195465  0.25010855    -0.16000
F1269       F  0.05765507  0.80618714  0.13474601    -0.16000
F1270       F  0.11529452  0.79472553  0.15311251    -0.13600
C1271       C  0.91864443  0.78074848  0.21306298     0.24400
C1272       C  0.92457418  0.79243524  0.18390816    -0.23700
C1273       C  0.90076109  0.79349537  0.16247713     0.19300
C1274       C  0.87135265  0.78471230  0.17046335     0.24300
C1275       C  0.86501749  0.77446398  0.20000541    -0.23700
C1276       C  0.88906032  0.77183155  0.22104685     0.19200
F1277       F  0.88340631  0.76319513  0.25007613    -0.13600
F1278       F  0.94087426  0.78024534  0.23452830    -0.16000
F1279       F  0.84868596  0.78733352  0.14958520    -0.16000
F1280       F  0.90580018  0.80379746  0.13385802    -0.13600
C1281       C  0.96312055  0.92419734  0.12458917     0.24400
C1282       C  0.98545933  0.92844411  0.10228753    -0.23700
C1283       C  0.00716679  0.90603395  0.09804123     0.19300
C1284       C  0.00579756  0.87932279  0.11456229     0.24300
C1285       C  0.98279503  0.87437822  0.13605600    -0.23700
C1286       C  0.96164312  0.89725339  0.14120477     0.19200
F1287       F  0.93964741  0.89360605  0.16234975    -0.13600
F1288       F  0.94197939  0.94554736  0.12934952    -0.16000
F1289       F  0.02633908  0.85775182  0.10848045    -0.16000
F1290       F  0.02969306  0.90990451  0.07749482    -0.13600
C1291       C  0.19580346  0.95450610  0.82436457     0.24400
C1292       C  0.20065908  0.97913681  0.80477612    -0.23700
C1293       C  0.21490423  0.97419120  0.77670610     0.19300
C1294       C  0.22319106  0.94525840  0.76822521     0.24300
C1295       C  0.21727961  0.92071951  0.78755711    -0.23700
C1296       C  0.20388638  0.92589188  0.81588514     0.19200
F1297       F  0.19803184  0.90311497  0.83559590    -0.13600
F1298       F  0.18262410  0.95770686  0.85186334    -0.16000
F1299       F  0.23559700  0.94116259  0.74049741    -0.16000
F1300       F  0.21957253  0.99701081  0.75676083    -0.13600
C1301       C  0.22325631  0.09627336  0.78361133     0.24400
C1302       C  0.19279017  0.08881368  0.78955625    -0.23700
C1303       C  0.17003123  0.10994803  0.78364565     0.19300
C1304       C  0.17777184  0.13882513  0.77492655     0.24300
C1305       C  0.20825672  0.14705124  0.77143689    -0.23700
C1306       C  0.23096695  0.12536976  0.77452031     0.19200
F1307       F  0.26061394  0.13285350  0.77081141    -0.13600
F1308       F  0.24566715  0.07614429  0.78863769    -0.16000
F1309       F  0.15545104  0.15906633  0.77042971    -0.16000
F1310       F  0.14023479  0.10280983  0.78697367    -0.13600
C1311       C  0.09203756  0.01399855  0.89632411     0.24400
C1312       C  0.08542837  0.04084193  0.91068610    -0.23700
C1313       C  0.10322069  0.06620584  0.90456798     0.19300
C1314       C  0.12660523  0.06499665  0.88321618     0.24300
C1315       C  0.13250283  0.03828480  0.86774111    -0.23700
C1316       C  0.11533449  0.01262207  0.87513861     0.19200
F1317       F  0.12064794  0.98613542  0.86163210    -0.13600
F1318       F  0.07619949  0.98883844  0.90330815    -0.16000
F1319       F  0.14383390  0.08974234  0.87821341    -0.16000
F1320       F  0.09776152  0.09215059  0.91905684    -0.13600
C1321       C  0.91429529  0.82680388  0.81243006     0.24400
C1322       C  0.93760579  0.82889397  0.79077541    -0.23700
C1323       C  0.93159024  0.81895435  0.76109754     0.19300
C1324       C  0.90246308  0.80883099  0.75295593     0.24300
C1325       C  0.87888561  0.80846340  0.77434167    -0.23700
C1326       C  0.88545936  0.81675150  0.80429664     0.19200
F1327       F  0.86375985  0.81531434  0.82593907    -0.13600
F1328       F  0.91912296  0.83477991  0.84167679    -0.16000
F1329       F  0.89698580  0.80094037  0.72380413    -0.16000
F1330       F  0.95336780  0.82036446  0.73951282    -0.13600
C1331       C  0.07220621  0.86683754  0.77644046     0.24400
C1332       C  0.04813148  0.84604996  0.77523402    -0.23700
C1333       C  0.05345161  0.81786571  0.76252294     0.19300
C1334       C  0.08273096  0.80987679  0.75354321     0.24300
C1335       C  0.10706279  0.82980837  0.75738566    -0.23700
C1336       C  0.10138625  0.85867063  0.76788451     0.19200
F1337       F  0.12448264  0.87858702  0.77114935    -0.13600
F1338       F  0.06784277  0.89480512  0.78702593    -0.16000
F1339       F  0.08776774  0.78174724  0.74377667    -0.16000
F1340       F  0.03097997  0.79713693  0.76100434    -0.13600
C1341       C  0.00769412  0.94565333  0.87697032     0.24400
C1342       C  0.99084817  0.93902119  0.90324398    -0.23700
C1343       C  0.97671985  0.91088881  0.90605228     0.19300
C1344       C  0.97846304  0.89033220  0.88257101     0.24300
C1345       C  0.99428168  0.89750208  0.85589903    -0.23700
C1346       C  0.00955755  0.92499444  0.85359573     0.19200
F1347       F  0.02537625  0.93235376  0.82824673    -0.13600
F1348       F  0.02248721  0.97212468  0.87390443    -0.16000
F1349       F  0.96496175  0.86322046  0.88600506    -0.16000
F1350       F  0.96035535  0.90360609  0.93107600    -0.13600
C1351       C  0.91045129  0.25371588  0.81009399     0.24400
C1352       C  0.92952875  0.24160541  0.78815135    -0.23700
C1353       C  0.91965718  0.24040211  0.75778600     0.19300
C1354       C  0.89035444  0.24962719  0.74983943     0.24300
C1355       C  0.87050653  0.25967036  0.77225845    -0.23700
C1356       C  0.88121521  0.26273605  0.80220584     0.19200
F1357       F  0.86299114  0.27369540  0.82409241    -0.13600
F1358       F  0.91991304  0.25631039  0.83932027    -0.16000
F1359       F  0.88064538  0.24649929  0.72078138    -0.16000
F1360       F  0.93743914  0.22810446  0.73628330    -0.13600
C1361       C  0.05982655  0.20376235  0.76631325     0.24400
C1362       C  0.03797457  0.22605609  0.76991809    -0.23700
C1363       C  0.04399172  0.25495914  0.75832696     0.19300
C1364       C  0.07250021  0.26193499  0.74603863     0.24300
C1365       C  0.09531934  0.24022600  0.74530180    -0.23700
C1366       C  0.08824914  0.21087333  0.75437694     0.19200
F1367       F  0.10964107  0.18938816  0.75341091    -0.13600
F1368       F  0.05403499  0.17523093  0.77529449    -0.16000
F1369       F  0.07881045  0.29057032  0.73788035    -0.16000
F1370       F  0.02337017  0.27712552  0.76127205    -0.13600
C1371       C  0.00602055  0.15116559  0.85747909     0.24400
C1372       C  0.98761938  0.17672654  0.85730831    -0.23700
C1373       C  0.96886780  0.18181323  0.88255549     0.19300
C1374       C  0.96840946  0.16174902  0.90720809     0.24300
C1375       C  0.98625008  0.13590705  0.90696577    -0.23700
C1376       C  0.00511729  0.13088707  0.88184804     0.19200
F1377       F  0.02238464  0.10591513  0.88059004    -0.13600
F1378       F  0.02371605  0.14484303  0.83332836    -0.16000
F1379       F  0.94916734  0.16673075  0.93048827    -0.16000
F1380       F  0.95061169  0.20608111  0.88333178    -0.13600
C1381       C  0.76439479  0.96746791  0.75176203     0.24400
C1382       C  0.79231075  0.97360395  0.76629993    -0.23700
C1383       C  0.81505518  0.95168591  0.76615404     0.19300
C1384       C  0.80898993  0.92325702  0.75510498     0.24300
C1385       C  0.78013350  0.91604845  0.74358721    -0.23700
C1386       C  0.75839018  0.93879813  0.74035123     0.19200
F1387       F  0.73056638  0.93262346  0.72853723    -0.13600
F1388       F  0.74218621  0.98833366  0.75064048    -0.16000
F1389       F  0.83092093  0.90211804  0.75717295    -0.16000
F1390       F  0.84300014  0.95744039  0.77791048    -0.13600
C1391       C  0.79782654  0.13689889  0.78446519     0.24400
C1392       C  0.76858537  0.14398109  0.77365794    -0.23700
C1393       C  0.74884371  0.12042671  0.76545713     0.19300
C1394       C  0.75773718  0.09055342  0.76919057     0.24300
C1395       C  0.78637093  0.08370129  0.78142918    -0.23700
C1396       C  0.80668761  0.10718031  0.78789611     0.19200
F1397       F  0.83526549  0.10131063  0.79800156    -0.13600
F1398       F  0.81795632  0.15868075  0.79193796    -0.16000
F1399       F  0.73772033  0.06843826  0.76256118    -0.16000
F1400       F  0.72025043  0.12622793  0.75544004    -0.13600
C1401       C  0.86680266  0.00566565  0.85422421     0.24400
C1402       C  0.83927815  0.02130335  0.85503100    -0.23700
C1403       C  0.83255630  0.03822289  0.88075334     0.19300
C1404       C  0.85348012  0.04030594  0.90471539     0.24300
C1405       C  0.88211567  0.02657836  0.90286995    -0.23700
C1406       C  0.88817628  0.00860760  0.87769041     0.19200
F1407       F  0.91474101  0.99354697  0.87594836    -0.13600
F1408       F  0.87372060  0.98872581  0.82996359    -0.16000
F1409       F  0.84596252  0.05643533  0.92930338    -0.16000
F1410       F  0.80571773  0.05287088  0.88262341    -0.13600
C1411       C  0.22411779  0.81847762  0.06155585     0.24400
C1412       C  0.19875947  0.83664683  0.05504694    -0.23700
C1413       C  0.17890484  0.84336083  0.07901707     0.19300
C1414       C  0.18475489  0.83339292  0.10844288     0.24300
C1415       C  0.21073494  0.81634311  0.11533128    -0.23700
C1416       C  0.23009698  0.80851290  0.09134493     0.19200
F1417       F  0.25501252  0.79142728  0.09657906    -0.13600
F1418       F  0.24324140  0.81024178  0.03920669    -0.16000
F1419       F  0.16440598  0.84053380  0.13015153    -0.16000
F1420       F  0.15344353  0.85982288  0.07445004    -0.13600
C1421       C  0.23012572  0.87464005  0.92316680     0.24400
C1422       C  0.22732793  0.85347296  0.94684624    -0.23700
C1423       C  0.23994569  0.82493096  0.94283831     0.19300
C1424       C  0.25089235  0.81648408  0.91439893     0.24300
C1425       C  0.25021531  0.83666370  0.88983346    -0.23700
C1426       C  0.24156553  0.86629784  0.89499542     0.19200
F1427       F  0.24266249  0.88678762  0.87216100    -0.13600
F1428       F  0.22060608  0.90312364  0.92685521    -0.16000
F1429       F  0.25889225  0.78766095  0.91003102    -0.16000
F1430       F  0.23913906  0.80423187  0.96550591    -0.13600
C1431       C  0.10858075  0.89173660  0.00210772     0.24400
C1432       C  0.13665434  0.90122193  0.99035738    -0.23700
C1433       C  0.13980225  0.93078498  0.98001233     0.19300
C1434       C  0.11584340  0.95099233  0.98299759     0.24300
C1435       C  0.08829155  0.94196153  0.99657503    -0.23700
C1436       C  0.08467624  0.91181935  0.00522907     0.19200
F1437       F  0.05836285  0.90182788  0.01768813    -0.13600
F1438       F  0.10439084  0.86291488  0.01096052    -0.16000
F1439       F  0.11967443  0.97935677  0.97251017    -0.16000
F1440       F  0.16659745  0.94052924  0.96847692    -0.13600
C1441       C  0.72760093  0.23993007  0.06960335     0.24400
C1442       C  0.74113839  0.21203487  0.06435455    -0.23700
C1443       C  0.74473545  0.19209700  0.08907175     0.19300
C1444       C  0.73745921  0.20064442  0.11849942     0.24300
C1445       C  0.72655286  0.22942897  0.12416394    -0.23700
C1446       C  0.72045965  0.24859558  0.09933827     0.19200
F1447       F  0.70968615  0.27645584  0.10406792    -0.13600
F1448       F  0.72320798  0.25957669  0.04634863    -0.16000
F1449       F  0.74181230  0.18090128  0.14173126    -0.16000
F1450       F  0.75590477  0.16429169  0.08487373    -0.13600
C1451       C  0.74075600  0.19060646  0.92618989     0.24400
C1452       C  0.73749453  0.21021950  0.95074107    -0.23700
C1453       C  0.72339035  0.23795861  0.94529266     0.19300
C1454       C  0.71522623  0.24683378  0.91559668     0.24300
C1455       C  0.72055368  0.22791552  0.89101623    -0.23700
C1456       C  0.73234941  0.19935717  0.89679188     0.19200
F1457       F  0.73720261  0.18040729  0.87352355    -0.13600
F1458       F  0.75302979  0.16313682  0.93038254    -0.16000
F1459       F  0.70479178  0.27490586  0.91052395    -0.16000
F1460       F  0.71975201  0.25746034  0.96824087    -0.13600
C1461       C  0.84454229  0.16636462  0.02868020     0.24400
C1462       C  0.82153358  0.16263059  0.00655783    -0.23700
C1463       C  0.82597274  0.14156364  0.98362062     0.19300
C1464       C  0.85228813  0.12438620  0.98311437     0.24300
C1465       C  0.87463320  0.12734351  0.00566352    -0.23700
C1466       C  0.87086714  0.14878052  0.02823125     0.19200
F1467       F  0.89208145  0.15183011  0.05046818    -0.13600
F1468       F  0.84172600  0.18711523  0.05060271    -0.16000
F1469       F  0.85606581  0.10475005  0.96037129    -0.16000
F1470       F  0.80439236  0.13674419  0.96210974    -0.13600
C1471       C  0.77527768  0.83988993  0.07233246     0.24400
C1472       C  0.77758318  0.81775796  0.05011949    -0.23700
C1473       C  0.76725729  0.78870548  0.05707225     0.19300
C1474       C  0.75687012  0.78161363  0.08634198     0.24300
C1475       C  0.75704060  0.80336959  0.10915270    -0.23700
C1476       C  0.76568619  0.83270576  0.10151421     0.19200
F1477       F  0.76497715  0.85468701  0.12239081    -0.13600
F1478       F  0.78243556  0.86876555  0.06591744    -0.16000
F1479       F  0.74813694  0.75315921  0.09270028    -0.16000
F1480       F  0.76840588  0.76686429  0.03608012    -0.13600
C1481       C  0.81095854  0.78746859  0.89022199     0.24400
C1482       C  0.78089897  0.78149444  0.88147371    -0.23700
C1483       C  0.75758301  0.78422519  0.90282282     0.19300
C1484       C  0.76413620  0.79418800  0.93215244     0.24300
C1485       C  0.79402487  0.80208273  0.94022152    -0.23700
C1486       C  0.81752495  0.79746048  0.91939716     0.19200
F1487       F  0.84683949  0.80324699  0.92711613    -0.13600
F1488       F  0.83383152  0.78472532  0.87003292    -0.16000
F1489       F  0.74098278  0.79826754  0.95179520    -0.16000
F1490       F  0.72820266  0.77986466  0.89446743    -0.13600
C1491       C  0.89248236  0.90520117  0.01571298     0.24400
C1492       C  0.88759690  0.93038540  0.99710727    -0.23700
C1493       C  0.86290135  0.93086258  0.97678726     0.16300
C1494       C  0.84337123  0.90623522  0.97512490     0.24300
C1495       C  0.84816543  0.88122276  0.99405444    -0.23700
C1496       C  0.87282762  0.88088778  0.01430875     0.19200
F1497       F  0.87810648  0.85680703  0.03251233    -0.13600
F1498       F  0.91597449  0.90445460  0.03582567    -0.16000
F1499       F  0.81937607  0.90709751  0.95567784    -0.16000
F1500       F  0.85809945  0.95479770  0.95821042    -0.13600
loop_ 
_geom_bond_atom_site_label_1 
_geom_bond_atom_site_label_2 
_geom_bond_distance 
_geom_bond_site_symmetry_2 
_ccdc_geom_bond_type 
C1            N2   1.357       .  A
C1            N6   1.362   1_554  A
C1         C1472   1.484       .  S
N2            C3   1.351   1_554  A
C3            N4   1.353       .  A
C3         C1495   1.466       .  S
N4            C5   1.360       .  A
C5            N6   1.363       .  A
C5         C1485   1.477       .  S
C7            N8   1.363       .  A
C7           N12   1.369       .  A
C7         C1442   1.493       .  S
N8            C9   1.356       .  A
C9           N10   1.356   1_554  A
C9         C1462   1.489       .  S
N10          C11   1.359       .  A
C11          N12   1.368   1_556  A
C11        C1452   1.494       .  S
C13          N14   1.354       .  A
C13          N18   1.363       .  A
C13        C1412   1.496       .  S
N14          C15   1.350   1_554  A
C15          N16   1.358       .  A
C15        C1432   1.479       .  S
N16          C17   1.366       .  A
C17          N18   1.366   1_556  A
C17        C1422   1.491       .  S
C19          N20   1.355       .  A
C19          N24   1.367       .  A
C19        C1395   1.482       .  S
N20          C21   1.349       .  A
C21          N22   1.356   1_545  A
C21        C1402   1.480       .  S
N22          C23   1.364   1_565  A
C23          N24   1.367       .  A
C23        C1382   1.488   1_545  S
C25          N26   1.355       .  A
C25          N30   1.358       .  A
C25        C1352   1.468       .  S
N26          C27   1.356   1_655  A
C27          N28   1.364       .  A
C27        C1362   1.481       .  S
N28          C29   1.362   1_455  A
C29          N30   1.357       .  A
C29        C1372   1.489       .  S
C31          N32   1.358       .  A
C31          N36   1.363       .  A
C31        C1322   1.488       .  S
N32          C33   1.353       .  A
C33          N34   1.352   1_655  A
C33        C1345   1.473       .  S
N34          C35   1.358       .  A
C35          N36   1.364   1_455  A
C35        C1332   1.484       .  S
C37          N38   1.362       .  A
C37          N42   1.358       .  A
C37        C1302   1.471       .  S
N38          C39   1.362       .  A
C39          N40   1.358       .  A
C39        C1292   1.491   1_545  S
N40          C41   1.353       .  A
C41          N42   1.352       .  A
C41        C1315   1.485       .  S
C43          N44   1.363       .  A
C43          N48   1.368       .  A
C43        C1272   1.486       .  S
N44          C45   1.357       .  A
C45          N46   1.354   1_655  A
C45        C1285   1.485       .  S
N46          C47   1.356       .  A
C47          N48   1.366   1_455  A
C47        C1265   1.488       .  S
C49          N50   1.355       .  A
C49          N54   1.370       .  A
C49        C1245   1.502       .  S
N50          C51   1.349       .  A
C51          N52   1.353   1_545  A
C51        C1252   1.479       .  S
N52          C53   1.363       .  A
C53          N54   1.372   1_565  A
C53        C1235   1.491       .  S
C55          N56   1.360       .  A
C55          N60   1.367       .  A
C55        C1212   1.487       .  S
N56          C57   1.355       .  A
C57          N58   1.352   1_655  A
C57        C1205   1.479       .  S
N58          C59   1.360       .  A
C59          N60   1.368   1_455  A
C59        C1222   1.490       .  S
Zr61         O62   2.438       .  S
Zr61         O63   2.409       .  S
Zr61         O64   2.425       .  S
Zr61         O67   2.415       .  S
Zr61         O69   2.373       .  S
Zr61         O70   2.379       .  S
Zr61         O71   2.395       .  S
Zr61         O72   2.393       .  S
O62         H118   0.991       .  S
O62         H126   0.990       .  S
O63          C83   1.280       .  A
O64          C85   1.283       .  A
O65         Zr75   2.455       .  S
O65          C84   1.287       .  A
O66         Zr74   2.457       .  S
O66          C85   1.288       .  A
O67          C84   1.282       .  A
O68         Zr76   2.430       .  S
O68          C83   1.282       .  A
O69         Zr74   2.396       .  S
O69         Zr76   2.378       .  S
O70         Zr75   2.399       .  S
O70         Zr76   2.383       .  S
O70         H105   0.968       .  S
O71         Zr74   2.404       .  S
O71         Zr91   2.394       .  S
O71         H108   0.967       .  S
O72         Zr75   2.399       .  S
O72         Zr91   2.395       .  S
Zr73         O98   2.444       .  S
Zr73         O92   2.411       .  S
Zr73        O100   2.429       .  S
Zr73         O88   2.426       .  S
Zr73         O79   2.401       .  S
Zr73         O80   2.399       .  S
Zr73         O81   2.376       .  S
Zr73         O82   2.377       .  S
Zr74         O93   2.435       .  S
Zr74         O86   2.434       .  S
Zr74         O87   2.446       .  S
Zr74         O80   2.404       .  S
Zr74         O81   2.395       .  S
Zr75         O77   2.437       .  S
Zr75         O99   2.436       .  S
Zr75        O101   2.452       .  S
Zr75         O79   2.400       .  S
Zr75         O82   2.394       .  S
Zr76        O102   2.435       .  S
Zr76        O103   2.439       .  S
Zr76         O78   2.437       .  S
Zr76         O79   2.404       .  S
Zr76         O80   2.394       .  S
O77         H114   0.990       .  S
O78         H109   0.989       .  S
O78         H123   0.991       .  S
O80         H106   0.966       .  S
O81         Zr91   2.375       .  S
O82         Zr91   2.382       .  S
O82         H107   0.967       .  S
C83        C1175   1.486       .  S
C84        C1155   1.478       .  S
C85        C1162   1.489       .  S
O86         H122   0.990       .  S
O87          C89   1.286       .  A
O88          C89   1.283       .  A
C89        C1182   1.477       .  S
O90         Zr91   2.437       .  S
O90         H119   0.991       .  S
Zr91         O94   2.435       .  S
Zr91         O95   2.440       .  S
Zr91         O96   2.427       .  S
O92          C97   1.281       .  A
O93         H110   0.990       .  S
O93         H125   0.990       .  S
O94         H111   0.990       .  S
O95         H115   0.991       .  S
O95         H124   0.989       .  S
O96          C97   1.283       .  A
C97        C1192   1.483       .  S
O98         H117   0.990       .  S
O98         H121   0.990       .  S
O99         H113   0.990       .  S
O99         H120   0.990       .  S
O100        C104   1.285       .  A
O101        C104   1.287       .  A
O102        H112   0.989       .  S
O103        H116   0.990       .  S
C104       C1225   1.487       .  S
C127        N128   1.356       .  A
C127        N132   1.363       .  A
C127       C1195   1.480       .  S
N128        C129   1.351       .  A
C129        N130   1.356       .  A
C129       C1132   1.488       .  S
N130        C131   1.362       .  A
C131        N132   1.365       .  A
C131       C1142   1.481   1_545  S
Zr133       O134   2.443       .  S
Zr133       O135   2.420       .  S
Zr133       O136   2.421       .  S
Zr133       O139   2.409       .  S
Zr133       O141   2.372       .  S
Zr133       O142   2.380       .  S
Zr133       O143   2.400       .  S
Zr133       O144   2.399       .  S
O134        H190   0.991       .  S
O134        H198   0.991       .  S
O135        C155   1.283       .  A
O136        C157   1.282       .  A
O137       Zr147   2.467       .  S
O137        C156   1.290       .  A
O138       Zr146   2.465       .  S
O138        C157   1.291       .  A
O139        C156   1.281       .  A
O140       Zr148   2.431       .  S
O140        C155   1.283       .  A
O141       Zr146   2.395       .  S
O141       Zr148   2.378       .  S
O142       Zr147   2.392       .  S
O142       Zr148   2.381       .  S
O142        H177   0.967       .  S
O143       Zr146   2.403       .  S
O143       Zr163   2.400       .  S
O143        H180   0.967       .  S
O144       Zr147   2.395       .  S
O144       Zr163   2.402       .  S
Zr145       O170   2.440       .  S
Zr145       O164   2.414       .  S
Zr145       O172   2.428       .  S
Zr145       O160   2.425       .  S
Zr145       O151   2.396       .  S
Zr145       O152   2.395       .  S
Zr145       O153   2.374       .  S
Zr145       O154   2.378       .  S
Zr146       O165   2.436       .  S
Zr146       O158   2.436       .  S
Zr146       O159   2.466       .  S
Zr146       O152   2.399       .  S
Zr146       O153   2.393       .  S
Zr147       O149   2.436       .  S
Zr147       O171   2.437       .  S
Zr147       O173   2.460       .  S
Zr147       O151   2.400       .  S
Zr147       O154   2.392       .  S
Zr148       O174   2.435       .  S
Zr148       O175   2.439       .  S
Zr148       O150   2.439       .  S
Zr148       O151   2.397       .  S
Zr148       O152   2.391       .  S
O149        H186   0.990       .  S
O150        H181   0.991       .  S
O150        H195   0.990       .  S
O152        H178   0.971       .  S
O153       Zr163   2.375       .  S
O154       Zr163   2.377       .  S
O154        H179   0.964       .  S
C155       C1102   1.488       .  S
C156       C1112   1.479       .  S
C157       C1122   1.490       .  S
O158        H194   0.990       .  S
O159        C161   1.291       .  A
O160        C161   1.284       .  A
C161       C1145   1.484       .  S
O162       Zr163   2.440       .  S
O162        H191   0.990       .  S
Zr163       O166   2.439       .  S
Zr163       O167   2.438       .  S
Zr163       O168   2.436       .  S
O164        C169   1.282       .  A
O165        H182   0.990       .  S
O165        H197   0.990       .  S
O166        H183   0.990       .  S
O167        H187   0.990       .  S
O167        H196   0.990       .  S
O168        C169   1.284       .  A
C169       C1415   1.491       .  S
O170        H189   0.990       .  S
O170        H193   0.990       .  S
O171        H185   0.990       .  S
O171        H192   0.990       .  S
O172        C176   1.285       .  A
O173        C176   1.290       .  A
O174        H184   0.990       .  S
O175        H188   0.989       .  S
C176       C1262   1.485       .  S
Zr199       O200   2.442       .  S
Zr199       O201   2.439       .  S
Zr199       O202   2.425       .  S
Zr199       O205   2.427       .  S
Zr199       O207   2.378       .  S
Zr199       O208   2.376       .  S
Zr199       O209   2.408       .  S
Zr199       O210   2.405       .  S
O200        H256   0.991       .  S
O200        H264   0.990       .  S
O201        C221   1.286       .  A
O202        C223   1.284       .  A
O203       Zr213   2.456       .  S
O203        C222   1.289       .  A
O204       Zr212   2.457       .  S
O204        C223   1.289       .  A
O205        C222   1.285       .  A
O206       Zr214   2.436       .  S
O206        C221   1.283       .  A
O207       Zr212   2.402       .  S
O207       Zr214   2.376       .  S
O208       Zr213   2.397       .  S
O208       Zr214   2.371       .  S
O208        H243   0.964       .  S
O209       Zr212   2.407       .  S
O209       Zr229   2.392       .  S
O209        H246   0.965       .  S
O210       Zr213   2.402       .  S
O210       Zr229   2.401       .  S
Zr211       O236   2.445       .  S
Zr211       O230   2.429       .  S
Zr211       O238   2.416       .  S
Zr211       O226   2.427       .  S
Zr211       O217   2.398       .  S
Zr211       O218   2.401       .  S
Zr211       O219   2.380       .  S
Zr211       O220   2.379       .  S
Zr212       O231   2.437       .  S
Zr212       O224   2.436       .  S
Zr212       O225   2.474       .  S
Zr212       O218   2.399       .  S
Zr212       O219   2.396       .  S
Zr213       O215   2.437       .  S
Zr213       O237   2.436       .  S
Zr213       O239   2.474       .  S
Zr213       O217   2.392       .  S
Zr213       O220   2.391       .  S
Zr214       O240   2.437       .  S
Zr214       O241   2.433       .  S
Zr214       O216   2.434       .  S
Zr214       O217   2.399       .  S
Zr214       O218   2.396       .  S
O215        H252   0.989       .  S
O216        H247   0.990       .  S
O216        H261   0.990       .  S
O218        H244   0.963       .  S
O219       Zr229   2.384       .  S
O220       Zr229   2.379       .  S
O220        H245   0.967       .  S
C221       C1242   1.497       .  S
C222       C1445   1.487       .  S
C223       C1215   1.479       .  S
O224        H260   0.989       .  S
O225        C227   1.291       .  A
O226        C227   1.284       .  A
C227       C1072   1.488       .  S
O228       Zr229   2.440       .  S
O228        H257   0.990       .  S
Zr229       O232   2.438       .  S
Zr229       O233   2.441       .  S
Zr229       O234   2.427       .  S
O230        C235   1.285       .  A
O231        H248   0.990       .  S
O231        H263   0.991       .  S
O232        H249   0.990       .  S
O233        H253   0.990       .  S
O233        H262   0.990       .  S
O234        C235   1.282       .  A
C235       C1082   1.491       .  S
O236        H255   0.991       .  S
O236        H259   0.990       .  S
O237        H251   0.990       .  S
O237        H258   0.990       .  S
O238        C242   1.283       .  A
O239        C242   1.291       .  A
O240        H250   0.989       .  S
O241        H254   0.989       .  S
C242       C1092   1.492       .  S
Zr265       O266   2.441       .  S
Zr265       O267   2.429       .  S
Zr265       O268   2.429       .  S
Zr265       O271   2.430       .  S
Zr265       O273   2.382       .  S
Zr265       O274   2.378       .  S
Zr265       O275   2.406       .  S
Zr265       O276   2.394       .  S
O266        H322   0.988       .  S
O266        H330   0.993       .  S
O267        C287   1.284       .  A
O268        C289   1.282       .  A
O269       Zr279   2.448       .  S
O269        C288   1.287       .  A
O270       Zr278   2.470       .  S
O270        C289   1.290       .  A
O271        C288   1.285       .  A
O272       Zr280   2.413       .  S
O272        C287   1.280       .  A
O273       Zr278   2.400       .  S
O273       Zr280   2.386       .  S
O274       Zr279   2.393       .  S
O274       Zr280   2.382       .  S
O274        H309   0.966       .  S
O275       Zr278   2.404       .  S
O275       Zr295   2.393       .  S
O275        H312   0.961       .  S
O276       Zr279   2.391       .  S
O276       Zr295   2.396       .  S
Zr277       O302   2.450       .  S
Zr277       O296   2.417       .  S
Zr277       O304   2.431       .  S
Zr277       O292   2.421       .  S
Zr277       O283   2.392       .  S
Zr277       O284   2.395       .  S
Zr277       O285   2.379       .  S
Zr277       O286   2.379       .  S
Zr278       O297   2.437       .  S
Zr278       O290   2.433       .  S
Zr278       O291   2.465       .  S
Zr278       O284   2.398       .  S
Zr278       O285   2.397       .  S
Zr279       O281   2.434       .  S
Zr279       O303   2.438       .  S
Zr279       O305   2.439       .  S
Zr279       O283   2.398       .  S
Zr279       O286   2.397       .  S
Zr280       O306   2.436       .  S
Zr280       O307   2.436       .  S
Zr280       O282   2.438       .  S
Zr280       O283   2.388       .  S
Zr280       O284   2.388       .  S
O281        H318   0.990       .  S
O282        H313   0.990       .  S
O282        H327   0.989       .  S
O284        H310   0.966       .  S
O285       Zr295   2.374       .  S
O286       Zr295   2.379       .  S
O286        H311   0.967       .  S
C287       C1042   1.475       .  S
C288       C1055   1.486       .  S
C289       C1062   1.482       .  S
O290        H326   0.990       .  S
O291        C293   1.290       .  A
O292        C293   1.283       .  A
C293       C1275   1.483       .  S
O294       Zr295   2.432       .  S
O294        H323   0.990       .  S
Zr295       O298   2.433       .  S
Zr295       O299   2.439       .  S
Zr295       O300   2.433       .  S
O296        C301   1.282       .  A
O297        H314   0.990       .  S
O297        H329   0.991       .  S
O298        H315   0.990       .  S
O299        H319   0.990       .  S
O299        H328   0.990       .  S
O300        C301   1.283       .  A
C301       C1475   1.482       .  S
O302        H321   0.990       .  S
O302        H325   0.990       .  S
O303        H317   0.991       .  S
O303        H324   0.990       .  S
O304        C308   1.285       .  A
O305        C308   1.285       .  A
O306        H316   0.989       .  S
O307        H320   0.990       .  S
C308       C1232   1.477       .  S
C331        N332   1.359       .  A
C331        N336   1.357       .  A
C331       C1185   1.481       .  S
N332        C333   1.362   1_554  A
C333        N334   1.363       .  A
C333       C1032   1.483       .  S
N334        C335   1.359   1_556  A
C335        N336   1.356       .  A
C335       C1025   1.484       .  S
Zr337       O338   2.444       .  S
Zr337       O339   2.411       .  S
Zr337       O340   2.416       .  S
Zr337       O343   2.410       .  S
Zr337       O345   2.373       .  S
Zr337       O346   2.382       .  S
Zr337       O347   2.403       .  S
Zr337       O348   2.386       .  S
O338        H394   0.993       .  S
O338        H402   0.988       .  S
O339        C359   1.279       .  A
O340        C361   1.278       .  A
O341       Zr351   2.453       .  S
O341        C360   1.288       .  A
O342       Zr350   2.457       .  S
O342        C361   1.286       .  A
O343        C360   1.280       .  A
O344       Zr352   2.410       .  S
O344        C359   1.277       .  A
O345       Zr350   2.400       .  S
O345       Zr352   2.388       .  S
O346       Zr351   2.401       .  S
O346       Zr352   2.388       .  S
O346        H381   0.968       .  S
O347       Zr350   2.403       .  S
O347       Zr367   2.400       .  S
O347        H384   0.966       .  S
O348       Zr351   2.384       .  S
O348       Zr367   2.376       .  S
Zr349       O374   2.444       .  S
Zr349       O368   2.412       .  S
Zr349       O376   2.420       .  S
Zr349       O364   2.423       .  S
Zr349       O355   2.392       .  S
Zr349       O356   2.398       .  S
Zr349       O357   2.376       .  S
Zr349       O358   2.380       .  S
Zr350       O369   2.438       .  S
Zr350       O362   2.432       .  S
Zr350       O363   2.444       .  S
Zr350       O356   2.413       .  S
Zr350       O357   2.397       .  S
Zr351       O353   2.435       .  S
Zr351       O375   2.438       .  S
Zr351       O377   2.450       .  S
Zr351       O355   2.394       .  S
Zr351       O358   2.401       .  S
Zr352       O378   2.438       .  S
Zr352       O379   2.439       .  S
Zr352       O354   2.436       .  S
Zr352       O355   2.386       .  S
Zr352       O356   2.390       .  S
O353        H390   0.990       .  S
O354        H385   0.990       .  S
O354        H399   0.990       .  S
O356        H382   0.966       .  S
O357       Zr367   2.377       .  S
O358       Zr367   2.380       .  S
O358        H383   0.967       .  S
C359       C1305   1.464       .  S
C360       C1035   1.481       .  S
C361       C1365   1.477       .  S
O362        H398   0.990       .  S
O363        C365   1.286       .  A
O364        C365   1.282       .  A
C365        C992   1.485       .  S
O366       Zr367   2.434       .  S
O366        H395   0.990       .  S
Zr367       O370   2.433       .  S
Zr367       O371   2.439       .  S
Zr367       O372   2.419       .  S
O368        C373   1.280       .  A
O369        H386   0.990       .  S
O369        H401   0.990       .  S
O370        H387   0.990       .  S
O371        H391   0.990       .  S
O371        H400   0.990       .  S
O372        C373   1.280       .  A
C373       C1002   1.459       .  S
O374        H393   0.990       .  S
O374        H397   0.991       .  S
O375        H389   0.990       .  S
O375        H396   0.990       .  S
O376        C380   1.284       .  A
O377        C380   1.288       .  A
O378        H388   0.990       .  S
O379        H392   0.990       .  S
C380       C1015   1.479       .  S
Zr403       O404   2.440       .  S
Zr403       O405   2.400       .  S
Zr403       O406   2.418       .  S
Zr403       O409   2.407       .  S
Zr403       O411   2.371       .  S
Zr403       O412   2.378       .  S
Zr403       O413   2.396       .  S
Zr403       O414   2.396       .  S
O404        H460   0.994       .  S
O404        H468   0.986       .  S
O405        C425   1.279       .  A
O406        C427   1.281       .  A
O407       Zr417   2.443       .  S
O407        C426   1.287       .  A
O408       Zr416   2.456       .  S
O408        C427   1.288       .  A
O409        C426   1.282       .  A
O410       Zr418   2.442       .  S
O410        C425   1.285       .  A
O411       Zr416   2.387       .  S
O411       Zr418   2.377       .  S
O412       Zr417   2.389       .  S
O412       Zr418   2.369       .  S
O412        H447   0.966       .  S
O413       Zr416   2.405       .  S
O413       Zr433   2.400       .  S
O413        H450   0.963       .  S
O414       Zr417   2.403       .  S
O414       Zr433   2.394       .  S
Zr415       O440   2.445       .  S
Zr415       O434   2.414       .  S
Zr415       O442   2.414       .  S
Zr415       O430   2.423       .  S
Zr415       O421   2.397       .  S
Zr415       O422   2.397       .  S
Zr415       O423   2.372       .  S
Zr415       O424   2.379       .  S
Zr416       O435   2.437       .  S
Zr416       O428   2.438       .  S
Zr416       O429   2.449       .  S
Zr416       O422   2.401       .  S
Zr416       O423   2.395       .  S
Zr417       O419   2.437       .  S
Zr417       O441   2.435       .  S
Zr417       O443   2.456       .  S
Zr417       O421   2.394       .  S
Zr417       O424   2.388       .  S
Zr418       O444   2.435       .  S
Zr418       O445   2.435       .  S
Zr418       O420   2.434       .  S
Zr418       O421   2.396       .  S
Zr418       O422   2.404       .  S
O419        H456   0.990       .  S
O420        H451   0.990       .  S
O420        H465   0.990       .  S
O422        H448   0.965       .  S
O423       Zr433   2.381       .  S
O424       Zr433   2.378       .  S
O424        H449   0.963       .  S
C425       C1295   1.484       .  S
C426       C1335   1.471       .  S
C427       C1425   1.479       .  S
O428        H464   0.989       .  S
O429        C431   1.286       .  A
O430        C431   1.284       .  A
C431        C972   1.479       .  S
O432       Zr433   2.438       .  S
O432        H461   0.991       .  S
Zr433       O436   2.438       .  S
Zr433       O437   2.440       .  S
Zr433       O438   2.417       .  S
O434        C439   1.282       .  A
O435        H452   0.990       .  S
O435        H467   0.990       .  S
O436        H453   0.990       .  S
O437        H457   0.990       .  S
O437        H466   0.990       .  S
O438        C439   1.280       .  A
C439        C982   1.475       .  S
O440        H459   0.990       .  S
O440        H463   0.991       .  S
O441        H455   0.989       .  S
O441        H462   0.990       .  S
O442        C446   1.282       .  A
O443        C446   1.288       .  A
O444        H454   0.990       .  S
O445        H458   0.990       .  S
C446        C962   1.479       .  S
Zr469       O470   2.443       .  S
Zr469       O471   2.444       .  S
Zr469       O472   2.423       .  S
Zr469       O475   2.411       .  S
Zr469       O477   2.374       .  S
Zr469       O478   2.382       .  S
Zr469       O479   2.403       .  S
Zr469       O480   2.394       .  S
O470        H526   0.991       .  S
O470        H534   0.990       .  S
O471        C491   1.286       .  A
O472        C493   1.282       .  A
O473       Zr483   2.437       .  S
O473        C492   1.285       .  A
O474       Zr482   2.458       .  S
O474        C493   1.288       .  A
O475        C492   1.282       .  A
O476       Zr484   2.426       .  S
O476        C491   1.282       .  A
O477       Zr482   2.403       .  S
O477       Zr484   2.375       .  S
O478       Zr483   2.396       .  S
O478       Zr484   2.378       .  S
O478        H513   0.962       .  S
O479       Zr482   2.406       .  S
O479       Zr499   2.393       .  S
O479        H516   0.966       .  S
O480       Zr483   2.395       .  S
O480       Zr499   2.388       .  S
Zr481       O506   2.445       .  S
Zr481       O500   2.438       .  S
Zr481       O508   2.413       .  S
Zr481       O496   2.411       .  S
Zr481       O487   2.403       .  S
Zr481       O488   2.407       .  S
Zr481       O489   2.373       .  S
Zr481       O490   2.372       .  S
Zr482       O501   2.436       .  S
Zr482       O494   2.435       .  S
Zr482       O495   2.460       .  S
Zr482       O488   2.402       .  S
Zr482       O489   2.402       .  S
Zr483       O485   2.435       .  S
Zr483       O507   2.439       .  S
Zr483       O509   2.453       .  S
Zr483       O487   2.394       .  S
Zr483       O490   2.400       .  S
Zr484       O510   2.433       .  S
Zr484       O511   2.433       .  S
Zr484       O486   2.438       .  S
Zr484       O487   2.404       .  S
Zr484       O488   2.390       .  S
O485        H522   0.990       .  S
O486        H517   0.990       .  S
O486        H531   0.991       .  S
O488        H514   0.965       .  S
O489       Zr499   2.380       .  S
O490       Zr499   2.386       .  S
O490        H515   0.966       .  S
C491       C1392   1.489       .  S
C492       C1355   1.472       .  S
C493       C1455   1.481       .  S
O494        H530   0.990       .  S
O495        C497   1.289       .  A
O496        C497   1.282       .  A
C497        C945   1.482       .  S
O498       Zr499   2.438       .  S
O498        H527   0.990       .  S
Zr499       O502   2.436       .  S
Zr499       O503   2.439       .  S
Zr499       O504   2.420       .  S
O500        C505   1.285       .  A
O501        H518   0.990       .  S
O501        H533   0.990       .  S
O502        H519   0.989       .  S
O503        H523   0.991       .  S
O503        H532   0.989       .  S
O504        C505   1.279       .  A
C505        C952   1.484       .  S
O506        H525   0.991       .  S
O506        H529   0.991       .  S
O507        H521   0.990       .  S
O507        H528   0.990       .  S
O508        C512   1.278       .  A
O509        C512   1.286       .  A
O510        H520   0.990       .  S
O511        H524   0.990       .  S
C512        C932   1.483       .  S
Zr535       O536   2.440       .  S
Zr535       O537   2.421       .  S
Zr535       O538   2.414       .  S
Zr535       O541   2.411       .  S
Zr535       O543   2.376       .  S
Zr535       O544   2.374       .  S
Zr535       O545   2.398       .  S
Zr535       O546   2.393       .  S
O536        H592   0.991       .  S
O536        H600   0.990       .  S
O537        C557   1.283       .  A
O538        C559   1.280       .  A
O539       Zr549   2.457       .  S
O539        C558   1.288       .  A
O540       Zr548   2.454       .  S
O540        C559   1.287       .  A
O541        C558   1.282       .  A
O542       Zr550   2.435       .  S
O542        C557   1.283       .  A
O543       Zr548   2.399       .  S
O543       Zr550   2.382       .  S
O544       Zr549   2.391       .  S
O544       Zr550   2.379       .  S
O544        H579   0.967       .  S
O545       Zr548   2.403       .  S
O545       Zr565   2.391       .  S
O545        H582   0.966       .  S
O546       Zr549   2.395       .  S
O546       Zr565   2.395       .  S
Zr547       O572   2.443       .  S
Zr547       O566   2.432       .  S
Zr547       O574   2.419       .  S
Zr547       O562   2.421       .  S
Zr547       O553   2.404       .  S
Zr547       O554   2.398       .  S
Zr547       O555   2.374       .  S
Zr547       O556   2.375       .  S
Zr548       O567   2.436       .  S
Zr548       O560   2.435       .  S
Zr548       O561   2.461       .  S
Zr548       O554   2.397       .  S
Zr548       O555   2.394       .  S
Zr549       O551   2.433       .  S
Zr549       O573   2.438       .  S
Zr549       O575   2.450       .  S
Zr549       O553   2.401       .  S
Zr549       O556   2.396       .  S
Zr550       O576   2.436       .  S
Zr550       O577   2.439       .  S
Zr550       O552   2.437       .  S
Zr550       O553   2.403       .  S
Zr550       O554   2.393       .  S
O551        H588   0.990       .  S
O552        H583   0.991       .  S
O552        H597   0.990       .  S
O554        H580   0.971       .  S
O555       Zr565   2.378       .  S
O556       Zr565   2.371       .  S
O556        H581   0.965       .  S
C557       C1325   1.483       .  S
C558       C1385   1.481       .  S
C559       C1482   1.470       .  S
O560        H596   0.990       .  S
O561        C563   1.289       .  A
O562        C563   1.284       .  A
C563        C912   1.485       .  S
O564       Zr565   2.437       .  S
O564        H593   0.990       .  S
Zr565       O568   2.438       .  S
Zr565       O569   2.442       .  S
Zr565       O570   2.418       .  S
O566        C571   1.285       .  A
O567        H584   0.990       .  S
O567        H599   0.990       .  S
O568        H585   0.989       .  S
O569        H589   0.990       .  S
O569        H598   0.990       .  S
O570        C571   1.280       .  A
C571        C925   1.476       .  S
O572        H591   0.989       .  S
O572        H595   0.991       .  S
O573        H587   0.990       .  S
O573        H594   0.990       .  S
O574        C578   1.284       .  A
O575        C578   1.287       .  A
O576        H586   0.990       .  S
O577        H590   0.990       .  S
C578        C902   1.476       .  S
C601        N602   1.353       .  A
C601        N606   1.364       .  A
C601        C922   1.479       .  S
N602        C603   1.348       .  A
C603        N604   1.355       .  A
C603        C895   1.469       .  S
N604        C605   1.363       .  A
C605        N606   1.365       .  A
C605        C975   1.491       .  S
C607        N608   1.358       .  A
C607        N612   1.357       .  A
C607       C1005   1.461       .  S
N608        C609   1.357       .  A
C609        N610   1.353       .  A
C609        C985   1.472       .  S
N610        C611   1.350       .  A
C611        N612   1.353       .  A
C611        C882   1.473       .  S
C613        N614   1.363       .  A
C613        N618   1.360       .  A
C613        C942   1.479       .  S
N614        C615   1.358       .  A
C615        N616   1.360       .  A
C615        C872   1.502       .  S
N616        C617   1.364       .  A
C617        N618   1.359       .  A
C617       C1012   1.484       .  S
C619        N620   1.367       .  A
C619        N624   1.353       .  A
C619        C955   1.482       .  S
N620        C621   1.370       .  A
C621        N622   1.365       .  A
C621        C915   1.496       .  S
N622        C623   1.354       .  A
C623        N624   1.345       .  A
C623        C862   1.474       .  S
C625        N626   1.360       .  A
C625        N630   1.368       .  A
C625       C1095   1.494       .  S
N626        C627   1.354       .  A
C627        N628   1.354       .  A
C627        C855   1.487       .  S
N628        C629   1.361       .  A
C629        N630   1.370       .  A
C629       C1165   1.497       .  S
C631        N632   1.354       .  A
C631        N636   1.368       .  A
C631       C1085   1.495       .  S
N632        C633   1.350       .  A
C633        N634   1.353       .  A
C633        C842   1.473       .  S
N634        C635   1.360       .  A
C635        N636   1.369       .  A
C635       C1065   1.483       .  S
C637        N638   1.366       .  A
C637        N642   1.360       .  A
C637       C1052   1.484       .  S
N638        C639   1.369       .  A
C639        N640   1.362       .  A
C639       C1125   1.502       .  S
N640        C641   1.359       .  A
C641        N642   1.353       .  A
C641        C832   1.483       .  S
C643        N644   1.365       .  A
C643        N648   1.357       .  A
C643       C1172   1.481       .  S
N644        C645   1.365       .  A
C645        N646   1.360       .  A
C645       C1115   1.481       .  S
N646        C647   1.354       .  A
C647        N648   1.350       .  A
C647        C822   1.473       .  S
C649        N650   1.353       .  A
C649        N654   1.364       .  A
C649       C1045   1.485       .  S
N650        C651   1.348       .  A
C651        N652   1.357       .  A
C651        C812   1.479       .  S
N652        C653   1.363       .  A
C653        N654   1.364       .  A
C653        C905   1.490       .  S
C655        N656   1.363       .  A
C655        N660   1.365       .  A
C655       C1075   1.488       .  S
N656        C657   1.358       .  A
C657        N658   1.358       .  A
C657        C802   1.495       .  S
N658        C659   1.362       .  A
C659        N660   1.365       .  A
C659        C935   1.495       .  S
C661        N662   1.354       .  A
C661        N666   1.366       .  A
C661       C1105   1.486       .  S
N662        C663   1.348       .  A
C663        N664   1.354       .  A
C663        C792   1.475       .  S
N664        C665   1.362       .  A
C665        N666   1.368       .  A
C665        C965   1.486       .  S
C667        N668   1.358       .  A
C667        N672   1.365       .  A
C667       C1152   1.475       .  S
N668        C669   1.354       .  A
C669        N670   1.353       .  A
C669        C785   1.485       .  S
N670        C671   1.359       .  A
C671        N672   1.366       .  A
C671        C995   1.493       .  S
O673       Zr709   2.430   1_566  S
O673        C684   1.291       .  A
O674       Zr708   2.437   1_565  S
O674        C685   1.292       .  A
O675       Zr681   2.430   1_556  S
O675        C686   1.291       .  A
O676       Zr681   2.428       .  S
O676        C687   1.291       .  A
O677       Zr711   2.466   1_565  S
O677        C687   1.296       .  A
O678       Zr710   2.445   1_565  S
O678        C686   1.293       .  A
O679       Zr681   2.442   1_455  S
O679        C685   1.293       .  A
O680       Zr681   2.415       .  S
O680        C684   1.289   1_554  A
Zr681       O682   2.332   1_665  S
Zr681       O683   2.336   1_564  S
Zr681       O691   2.344   1_565  S
Zr681       O689   2.325   1_664  S
O682       Zr708   2.336       .  S
O682       Zr711   2.342   1_455  S
O683       Zr709   2.338   1_556  S
O683       Zr710   2.326       .  S
C684       C1492   1.464       .  S
C685       C1435   1.486   1_554  S
C686       C1342   1.480       .  S
C687       C1282   1.481       .  S
H688        O689   0.965   1_565  S
O689       Zr708   2.336   1_556  S
O689       Zr710   2.329   1_455  S
H690        O691   0.966   1_565  S
O691       Zr709   2.344       .  S
O691       Zr711   2.338       .  S
O692       Zr708   2.430       .  S
O692        C715   1.291       .  A
O693       Zr709   2.430       .  S
O693        C716   1.291       .  A
O694       Zr710   2.448   1_455  S
O694        C717   1.294       .  A
O695       Zr711   2.428   1_455  S
O695        C718   1.290       .  A
O696       Zr711   2.436       .  S
O696        C719   1.292       .  A
O697       Zr710   2.463       .  S
O697        C720   1.297       .  A
O698       Zr712   2.472   1_556  S
O698        C721   1.299       .  A
O699       Zr712   2.468       .  S
O699        C722   1.298       .  A
O700       Zr710   2.414       .  S
O700        C721   1.289       .  A
O701       Zr711   2.445       .  S
O701        C722   1.294       .  A
O702       Zr708   2.435   1_556  S
O702        C717   1.290       .  A
O703       Zr709   2.436   1_556  S
O703        C720   1.291       .  A
O704       Zr709   2.445       .  S
O704        C719   1.293       .  A
O705       Zr708   2.441       .  S
O705        C718   1.292       .  A
O706       Zr712   2.450   1_455  S
O706        C715   1.294       .  A
O707       Zr712   2.453       .  S
O707        C716   1.294       .  A
Zr708       O714   2.337   1_554  S
Zr708       O726   2.343       .  S
Zr709       O713   2.342       .  S
Zr709       O724   2.345   1_554  S
Zr710       O714   2.345   1_655  S
Zr710       O724   2.348       .  S
Zr711       O713   2.348       .  S
Zr711       O726   2.354   1_655  S
Zr712       O713   2.353       .  S
Zr712       O714   2.342   1_654  S
Zr712       O726   2.356   1_655  S
Zr712       O724   2.358   1_554  S
C715       C1022   1.480       .  S
C716       C1465   1.476       .  S
C717       C1312   1.469       .  S
C718       C1135   1.467       .  S
C719       C1255   1.486       .  S
C720       C1405   1.489       .  S
C721       C1375   1.484       .  S
C722       C1202   1.491       .  S
H723        O724   0.965       .  S
H725        O726   0.967       .  S
O727       Zr763   2.442       .  S
O727        C738   1.293       .  A
O728       Zr762   2.482       .  S
O728        C739   1.300       .  A
O729       Zr735   2.428       .  S
O729        C740   1.290       .  A
O730       Zr735   2.432       .  S
O730        C741   1.291       .  A
O731       Zr765   2.452       .  S
O731        C741   1.295       .  A
O732       Zr764   2.420       .  S
O732        C740   1.288       .  A
O733       Zr735   2.428       .  S
O733        C739   1.290       .  A
O734       Zr735   2.433       .  S
O734        C738   1.291       .  A
Zr735       O736   2.340       .  S
Zr735       O737   2.335       .  S
Zr735       O745   2.332       .  S
Zr735       O743   2.341       .  S
O736       Zr762   2.348       .  S
O736       Zr765   2.345       .  S
O737       Zr763   2.328       .  S
O737       Zr764   2.332       .  S
C738        C892   1.489       .  S
C739        C875   1.488       .  S
C740        C885   1.459       .  S
C741        C865   1.484       .  S
H742        O743   0.965       .  S
O743       Zr762   2.346       .  S
O743       Zr764   2.345       .  S
H744        O745   0.967       .  S
O745       Zr763   2.334       .  S
O745       Zr765   2.330       .  S
O746       Zr762   2.452       .  S
O746        C769   1.295       .  A
O747       Zr763   2.433       .  S
O747        C770   1.292       .  A
O748       Zr764   2.428       .  S
O748        C771   1.290       .  A
O749       Zr765   2.441       .  S
O749        C772   1.293       .  A
O750       Zr765   2.452       .  S
O750        C773   1.295       .  A
O751       Zr764   2.443       .  S
O751        C774   1.292       .  A
O752       Zr766   2.453       .  S
O752        C775   1.294       .  A
O753       Zr766   2.440       .  S
O753        C776   1.292       .  A
O754       Zr764   2.425       .  S
O754        C775   1.290       .  A
O755       Zr765   2.434       .  S
O755        C776   1.291       .  A
O756       Zr762   2.454       .  S
O756        C771   1.295       .  A
O757       Zr763   2.432       .  S
O757        C774   1.291       .  A
O758       Zr763   2.409       .  S
O758        C773   1.287       .  A
O759       Zr762   2.453       .  S
O759        C772   1.295       .  A
O760       Zr766   2.439       .  S
O760        C769   1.293       .  A
O761       Zr766   2.467       .  S
O761        C770   1.297       .  A
Zr762       O768   2.356       .  S
Zr762       O780   2.356       .  S
Zr763       O767   2.338       .  S
Zr763       O778   2.335       .  S
Zr764       O768   2.338       .  S
Zr764       O778   2.337       .  S
Zr765       O767   2.342       .  S
Zr765       O780   2.346       .  S
Zr766       O767   2.338       .  S
Zr766       O768   2.350       .  S
Zr766       O780   2.357       .  S
Zr766       O778   2.344       .  S
C769        C852   1.476       .  S
C770        C835   1.495       .  S
C771        C782   1.469       .  S
C772        C805   1.481       .  S
C773        C815   1.471       .  S
C774        C795   1.473       .  S
C775        C825   1.478       .  S
C776        C845   1.469       .  S
H777        O778   0.964       .  S
H779        O780   0.965       .  S
C781        C782   1.403       .  A
C781        C786   1.399       .  A
C781        F788   1.358       .  S
C782        C783   1.402       .  A
C783        C784   1.399       .  A
C783        F790   1.358       .  S
C784        C785   1.412       .  A
C784        F789   1.358       .  S
C785        C786   1.411       .  A
C786        F787   1.358       .  S
C791        C792   1.407       .  A
C791        C796   1.400       .  A
C791        F798   1.358       .  S
C792        C793   1.408       .  A
C793        C794   1.396       .  A
C793        F800   1.359       .  S
C794        C795   1.403       .  A
C794        F799   1.355       .  S
C795        C796   1.406       .  A
C796        F797   1.358       .  S
C801        C802   1.411       .  A
C801        C806   1.398       .  A
C801        F808   1.356       .  S
C802        C803   1.413       .  A
C803        C804   1.406       .  A
C803        F810   1.358       .  S
C804        C805   1.405       .  A
C804        F809   1.357       .  S
C805        C806   1.403       .  A
C806        F807   1.357       .  S
C811        C812   1.405       .  A
C811        C816   1.397       .  A
C811        F818   1.358       .  S
C812        C813   1.412       .  A
C813        C814   1.396       .  A
C813        F820   1.357       .  S
C814        C815   1.402       .  A
C814        F819   1.359       .  S
C815        C816   1.407       .  A
C816        F817   1.357       .  S
C821        C822   1.407       .  A
C821        C826   1.401       .  A
C821        F828   1.358       .  S
C822        C823   1.403       .  A
C823        C824   1.396       .  A
C823        F830   1.358       .  S
C824        C825   1.409       .  A
C824        F829   1.358       .  S
C825        C826   1.406       .  A
C826        F827   1.358       .  S
C831        C832   1.400       .  A
C831        C836   1.394       .  A
C831        F838   1.358       .  S
C832        C833   1.411       .  A
C833        C834   1.410       .  A
C833        F840   1.358       .  S
C834        C835   1.412       .  A
C834        F839   1.357       .  S
C835        C836   1.411       .  A
C836        F837   1.355       .  S
C841        C842   1.407       .  A
C841        C846   1.400       .  A
C841        F848   1.358       .  S
C842        C843   1.406       .  A
C843        C844   1.394       .  A
C843        F850   1.358       .  S
C844        C845   1.403       .  A
C844        F849   1.358       .  S
C845        C846   1.405       .  A
C846        F847   1.357       .  S
C851        C852   1.405       .  A
C851        C856   1.400       .  A
C851        F858   1.359       .  S
C852        C853   1.405       .  A
C853        C854   1.402       .  A
C853        F860   1.358       .  S
C854        C855   1.410       .  A
C854        F859   1.358       .  S
C855        C856   1.410       .  A
C856        F857   1.357       .  S
C861        C862   1.407       .  A
C861        C866   1.398       .  A
C861        F868   1.358       .  S
C862        C863   1.402       .  A
C863        C864   1.401       .  A
C863        F870   1.358       .  S
C864        C865   1.413       .  A
C864        F869   1.358       .  S
C865        C866   1.406       .  A
C866        F867   1.356       .  S
C871        C872   1.411       .  A
C871        C876   1.402       .  A
C871        F878   1.357       .  S
C872        C873   1.416       .  A
C873        C874   1.408       .  A
C873        F880   1.357       .  S
C874        C875   1.405       .  A
C874        F879   1.358       .  S
C875        C876   1.408       .  A
C876        F877   1.358       .  S
C881        C882   1.408       .  A
C881        C886   1.397       .  A
C881        F888   1.358       .  S
C882        C883   1.410       .  A
C883        C884   1.389       .  A
C883        F890   1.356       .  S
C884        C885   1.399       .  A
C884        F889   1.359       .  S
C885        C886   1.402       .  A
C886        F887   1.358       .  S
C891        C892   1.414       .  A
C891        C896   1.399       .  A
C891        F898   1.357       .  S
C892        C893   1.412       .  A
C893        C894   1.397       .  A
C893        F900   1.357       .  S
C894        C895   1.402       .  A
C894        F899   1.358       .  S
C895        C896   1.400       .  A
C896        F897   1.358       .  S
C901        C902   1.401       .  A
C901        C906   1.394       .  A
C901        F908   1.355       .  S
C902        C903   1.403       .  A
C903        C904   1.406       .  A
C903        F910   1.357       .  S
C904        C905   1.413       .  A
C904        F909   1.357       .  S
C905        C906   1.410       .  A
C906        F907   1.358       .  S
C911        C912   1.403       .  A
C911        C916   1.394       .  A
C911        F918   1.358       .  S
C912        C913   1.409       .  A
C913        C914   1.411       .  A
C913        F920   1.358       .  S
C914        C915   1.414       .  A
C914        F919   1.358       .  S
C915        C916   1.410       .  A
C916        F917   1.358       .  S
C921        C922   1.406       .  A
C921        C926   1.401       .  A
C921        F928   1.358       .  S
C922        C923   1.410       .  A
C923        C924   1.392       .  A
C923        F930   1.359       .  S
C924        C925   1.401       .  A
C924        F929   1.355       .  S
C925        C926   1.410       .  A
C926        F927   1.358       .  S
C931        C932   1.405       .  A
C931        C936   1.393       .  A
C931        F938   1.358       .  S
C932        C933   1.407       .  A
C933        C934   1.411       .  A
C933        F940   1.357       .  S
C934        C935   1.414       .  A
C934        F939   1.357       .  S
C935        C936   1.409       .  A
C936        F937   1.357       .  S
C941        C942   1.401       .  A
C941        C946   1.392       .  A
C941        F948   1.358       .  S
C942        C943   1.411       .  A
C943        C944   1.407       .  A
C943        F950   1.357       .  S
C944        C945   1.407       .  A
C944        F949   1.358       .  S
C945        C946   1.409       .  A
C946        F947   1.358       .  S
C951        C952   1.412       .  A
C951        C956   1.407       .  A
C951        F958   1.357       .  S
C952        C953   1.403       .  A
C953        C954   1.390       .  A
C953        F960   1.357       .  S
C954        C955   1.410       .  A
C954        F959   1.358       .  S
C955        C956   1.407       .  A
C956        F957   1.357       .  S
C961        C962   1.407       .  A
C961        C966   1.407       .  A
C961        F968   1.357       .  S
C962        C963   1.404       .  A
C963        C964   1.395       .  A
C963        F970   1.358       .  S
C964        C965   1.409       .  A
C964        F969   1.358       .  S
C965        C966   1.410       .  A
C966        F967   1.357       .  S
C971        C972   1.406       .  A
C971        C976   1.407       .  A
C971        F978   1.358       .  S
C972        C973   1.402       .  A
C973        C974   1.394       .  A
C973        F980   1.356       .  S
C974        C975   1.409       .  A
C974        F979   1.358       .  S
C975        C976   1.414       .  A
C976        F977   1.357       .  S
C981        C982   1.411       .  A
C981        C986   1.399       .  A
C981        F988   1.358       .  S
C982        C983   1.405       .  A
C983        C984   1.385       .  A
C983        F990   1.357       .  S
C984        C985   1.405       .  A
C984        F989   1.357       .  S
C985        C986   1.406       .  A
C986        F987   1.357       .  S
C991        C992   1.406       .  A
C991        C996   1.393       .  A
C991        F998   1.358       .  S
C992        C993   1.408       .  A
C993        C994   1.407       .  A
C993       F1000   1.357       .  S
C994        C995   1.412       .  A
C994        F999   1.357       .  S
C995        C996   1.412       .  A
C996        F997   1.359       .  S
C1001      C1002   1.402       .  A
C1001      C1006   1.397       .  A
C1001      F1008   1.358       .  S
C1002      C1003   1.403       .  A
C1003      C1004   1.392       .  A
C1003      F1010   1.358       .  S
C1004      C1005   1.402       .  A
C1004      F1009   1.359       .  S
C1005      C1006   1.405       .  A
C1006      F1007   1.358       .  S
C1011      C1012   1.403       .  A
C1011      C1016   1.394       .  A
C1011      F1018   1.357       .  S
C1012      C1013   1.412       .  A
C1013      C1014   1.408       .  A
C1013      F1020   1.358       .  S
C1014      C1015   1.408       .  A
C1014      F1019   1.358       .  S
C1015      C1016   1.405       .  A
C1016      F1017   1.358       .  S
C1021      C1022   1.408   1_556  A
C1021      C1026   1.404       .  A
C1021      F1028   1.358       .  S
C1022      C1023   1.405       .  A
C1023      C1024   1.395       .  A
C1023      F1030   1.358       .  S
C1024      C1025   1.409       .  A
C1024      F1029   1.358       .  S
C1025      C1026   1.409   1_554  A
C1026      F1027   1.358       .  S
C1031      C1032   1.405       .  A
C1031      C1036   1.396       .  A
C1031      F1038   1.358       .  S
C1032      C1033   1.410       .  A
C1033      C1034   1.402       .  A
C1033      F1040   1.357       .  S
C1034      C1035   1.404       .  A
C1034      F1039   1.358       .  S
C1035      C1036   1.411       .  A
C1036      F1037   1.359       .  S
C1041      C1042   1.408       .  A
C1041      C1046   1.400       .  A
C1041      F1048   1.357       .  S
C1042      C1043   1.401       .  A
C1043      C1044   1.392       .  A
C1043      F1050   1.358       .  S
C1044      C1045   1.414       .  A
C1044      F1049   1.357       .  S
C1045      C1046   1.408       .  A
C1046      F1047   1.357       .  S
C1051      C1052   1.410       .  A
C1051      C1056   1.411       .  A
C1051      F1058   1.357       .  S
C1052      C1053   1.404       .  A
C1053      C1054   1.394       .  A
C1053      F1060   1.358       .  S
C1054      C1055   1.407       .  A
C1054      F1059   1.357       .  S
C1055      C1056   1.410       .  A
C1056      F1057   1.358       .  S
C1061      C1062   1.409       .  A
C1061      C1066   1.408       .  A
C1061      F1068   1.357       .  S
C1062      C1063   1.404       .  A
C1063      C1064   1.401       .  A
C1063      F1070   1.358       .  S
C1064      C1065   1.408       .  A
C1064      F1069   1.358       .  S
C1065      C1066   1.405       .  A
C1066      F1067   1.358       .  S
C1071      C1072   1.412       .  A
C1071      C1076   1.413       .  A
C1071      F1078   1.358       .  S
C1072      C1073   1.405       .  A
C1073      C1074   1.398       .  A
C1073      F1080   1.358       .  S
C1074      C1075   1.406       .  A
C1074      F1079   1.358       .  S
C1075      C1076   1.410       .  A
C1076      F1077   1.358       .  S
C1081      C1082   1.406       .  A
C1081      C1086   1.393       .  A
C1081      F1088   1.358       .  S
C1082      C1083   1.413       .  A
C1083      C1084   1.406       .  A
C1083      F1090   1.357       .  S
C1084      C1085   1.408       .  A
C1084      F1089   1.357       .  S
C1085      C1086   1.415       .  A
C1086      F1087   1.358       .  S
C1091      C1092   1.410       .  A
C1091      C1096   1.414       .  A
C1091      F1098   1.357       .  S
C1092      C1093   1.406       .  A
C1093      C1094   1.395       .  A
C1093      F1100   1.356       .  S
C1094      C1095   1.409       .  A
C1094      F1099   1.358       .  S
C1095      C1096   1.412       .  A
C1096      F1097   1.358       .  S
C1101      C1102   1.413       .  A
C1101      C1106   1.406       .  A
C1101      F1108   1.358       .  S
C1102      C1103   1.408       .  A
C1103      C1104   1.391       .  A
C1103      F1110   1.359       .  S
C1104      C1105   1.411       .  A
C1104      F1109   1.359       .  S
C1105      C1106   1.407       .  A
C1106      F1107   1.357       .  S
C1111      C1112   1.407       .  A
C1111      C1116   1.406       .  A
C1111      F1118   1.357       .  S
C1112      C1113   1.406       .  A
C1113      C1114   1.398       .  A
C1113      F1120   1.358       .  S
C1114      C1115   1.407       .  A
C1114      F1119   1.358       .  S
C1115      C1116   1.407       .  A
C1116      F1117   1.358       .  S
C1121      C1122   1.406       .  A
C1121      C1126   1.407       .  A
C1121      F1128   1.357       .  S
C1122      C1123   1.407       .  A
C1123      C1124   1.402       .  A
C1123      F1130   1.359       .  S
C1124      C1125   1.414       .  A
C1124      F1129   1.358       .  S
C1125      C1126   1.413       .  A
C1126      F1127   1.356       .  S
C1131      C1132   1.411       .  A
C1131      C1136   1.399       .  A
C1131      F1138   1.357   1_545  S
C1132      C1133   1.414       .  A
C1133      C1134   1.398       .  A
C1133      F1140   1.358       .  S
C1134      C1135   1.399       .  A
C1134      F1139   1.358       .  S
C1135      C1136   1.402       .  A
C1136      F1137   1.358   1_545  S
C1141      C1142   1.406       .  A
C1141      C1146   1.399       .  A
C1141      F1148   1.359       .  S
C1142      C1143   1.406       .  A
C1143      C1144   1.407       .  A
C1143      F1150   1.358       .  S
C1144      C1145   1.408       .  A
C1144      F1149   1.357       .  S
C1145      C1146   1.407       .  A
C1146      F1147   1.358       .  S
C1151      C1152   1.408       .  A
C1151      C1156   1.409       .  A
C1151      F1158   1.357       .  S
C1152      C1153   1.402       .  A
C1153      C1154   1.393       .  A
C1153      F1160   1.358       .  S
C1154      C1155   1.405       .  A
C1154      F1159   1.358       .  S
C1155      C1156   1.408       .  A
C1156      F1157   1.357       .  S
C1161      C1162   1.409       .  A
C1161      C1166   1.410       .  A
C1161      F1168   1.357       .  S
C1162      C1163   1.406       .  A
C1163      C1164   1.397       .  A
C1163      F1170   1.359       .  S
C1164      C1165   1.412       .  A
C1164      F1169   1.358       .  S
C1165      C1166   1.411       .  A
C1166      F1167   1.357       .  S
C1171      C1172   1.407       .  A
C1171      C1176   1.389       .  A
C1171      F1178   1.359       .  S
C1172      C1173   1.407       .  A
C1173      C1174   1.406       .  A
C1173      F1180   1.358       .  S
C1174      C1175   1.412       .  A
C1174      F1179   1.358       .  S
C1175      C1176   1.409       .  A
C1176      F1177   1.359       .  S
C1181      C1182   1.407       .  A
C1181      C1186   1.403       .  A
C1181      F1188   1.358       .  S
C1182      C1183   1.404       .  A
C1183      C1184   1.397       .  A
C1183      F1190   1.358       .  S
C1184      C1185   1.408       .  A
C1184      F1189   1.358       .  S
C1185      C1186   1.408       .  A
C1186      F1187   1.358       .  S
C1191      C1192   1.408       .  A
C1191      C1196   1.389       .  A
C1191      F1198   1.359       .  S
C1192      C1193   1.412       .  A
C1193      C1194   1.404       .  A
C1193      F1200   1.358       .  S
C1194      C1195   1.407       .  A
C1194      F1199   1.357       .  S
C1195      C1196   1.408       .  A
C1196      F1197   1.359       .  S
C1201      C1202   1.410       .  A
C1201      C1206   1.408       .  A
C1201      F1208   1.357   1_655  S
C1202      C1203   1.409       .  A
C1203      C1204   1.397       .  A
C1203      F1210   1.353       .  S
C1204      C1205   1.402       .  A
C1204      F1209   1.359       .  S
C1205      C1206   1.409       .  A
C1206      F1207   1.359   1_655  S
C1211      C1212   1.409       .  A
C1211      C1216   1.396       .  A
C1211      F1218   1.358       .  S
C1212      C1213   1.409       .  A
C1213      C1214   1.408       .  A
C1213      F1220   1.357       .  S
C1214      C1215   1.407       .  A
C1214      F1219   1.358       .  S
C1215      C1216   1.403       .  A
C1216      F1217   1.358       .  S
C1221      C1222   1.409       .  A
C1221      C1226   1.409       .  A
C1221      F1228   1.357       .  S
C1222      C1223   1.410       .  A
C1223      C1224   1.396       .  A
C1223      F1230   1.359       .  S
C1224      C1225   1.405       .  A
C1224      F1229   1.358       .  S
C1225      C1226   1.410       .  A
C1226      F1227   1.358       .  S
C1231      C1232   1.401       .  A
C1231      C1236   1.396       .  A
C1231      F1238   1.358       .  S
C1232      C1233   1.407       .  A
C1233      C1234   1.408       .  A
C1233      F1240   1.358       .  S
C1234      C1235   1.411       .  A
C1234      F1239   1.357       .  S
C1235      C1236   1.411       .  A
C1236      F1237   1.358       .  S
C1241      C1242   1.414       .  A
C1241      C1246   1.410       .  A
C1241      F1248   1.357       .  S
C1242      C1243   1.405       .  A
C1243      C1244   1.394       .  A
C1243      F1250   1.357       .  S
C1244      C1245   1.417       .  A
C1244      F1249   1.358       .  S
C1245      C1246   1.410       .  A
C1246      F1247   1.357       .  S
C1251      C1252   1.406       .  A
C1251      C1256   1.396       .  A
C1251      F1258   1.358       .  S
C1252      C1253   1.405       .  A
C1253      C1254   1.402       .  A
C1253      F1260   1.357   1_545  S
C1254      C1255   1.410       .  A
C1254      F1259   1.358   1_545  S
C1255      C1256   1.408       .  A
C1256      F1257   1.354       .  S
C1261      C1262   1.409       .  A
C1261      C1266   1.408       .  A
C1261      F1268   1.357       .  S
C1262      C1263   1.405       .  A
C1263      C1264   1.399       .  A
C1263      F1270   1.359       .  S
C1264      C1265   1.410       .  A
C1264      F1269   1.358       .  S
C1265      C1266   1.408       .  A
C1266      F1267   1.357       .  S
C1271      C1272   1.408       .  A
C1271      C1276   1.408       .  A
C1271      F1278   1.358       .  S
C1272      C1273   1.408       .  A
C1273      C1274   1.399       .  A
C1273      F1280   1.358       .  S
C1274      C1275   1.406       .  A
C1274      F1279   1.358       .  S
C1275      C1276   1.408       .  A
C1276      F1277   1.357       .  S
C1281      C1282   1.407       .  A
C1281      C1286   1.407       .  A
C1281      F1288   1.358       .  S
C1282      C1283   1.406   1_655  A
C1283      C1284   1.396       .  A
C1283      F1290   1.358       .  S
C1284      C1285   1.408   1_455  A
C1284      F1289   1.358       .  S
C1285      C1286   1.411       .  A
C1286      F1287   1.358       .  S
C1291      C1292   1.410       .  A
C1291      C1296   1.390       .  A
C1291      F1298   1.358       .  S
C1292      C1293   1.412       .  A
C1293      C1294   1.405       .  A
C1293      F1300   1.357       .  S
C1294      C1295   1.408       .  A
C1294      F1299   1.358       .  S
C1295      C1296   1.408       .  A
C1296      F1297   1.358       .  S
C1301      C1302   1.408       .  A
C1301      C1306   1.401       .  A
C1301      F1308   1.356       .  S
C1302      C1303   1.404       .  A
C1303      C1304   1.388       .  A
C1303      F1310   1.359       .  S
C1304      C1305   1.400       .  A
C1304      F1309   1.353       .  S
C1305      C1306   1.403       .  A
C1306      F1307   1.358       .  S
C1311      C1312   1.400       .  A
C1311      C1316   1.395       .  A
C1311      F1318   1.357   1_545  S
C1312      C1313   1.403       .  A
C1313      C1314   1.402       .  A
C1313      F1320   1.358       .  S
C1314      C1315   1.412       .  A
C1314      F1319   1.358       .  S
C1315      C1316   1.410       .  A
C1316      F1317   1.357   1_545  S
C1321      C1322   1.409       .  A
C1321      C1326   1.393       .  A
C1321      F1328   1.358       .  S
C1322      C1323   1.411       .  A
C1323      C1324   1.405       .  A
C1323      F1330   1.357       .  S
C1324      C1325   1.408       .  A
C1324      F1329   1.358       .  S
C1325      C1326   1.405       .  A
C1326      F1327   1.356       .  S
C1331      C1332   1.410       .  A
C1331      C1336   1.394       .  A
C1331      F1338   1.359       .  S
C1332      C1333   1.410       .  A
C1333      C1334   1.402       .  A
C1333      F1340   1.357       .  S
C1334      C1335   1.404       .  A
C1334      F1339   1.358       .  S
C1335      C1336   1.404       .  A
C1336      F1337   1.359       .  S
C1341      C1342   1.408   1_455  A
C1341      C1346   1.398       .  A
C1341      F1348   1.357       .  S
C1342      C1343   1.409       .  A
C1343      C1344   1.398       .  A
C1343      F1350   1.358       .  S
C1344      C1345   1.405       .  A
C1344      F1349   1.358       .  S
C1345      C1346   1.405   1_655  A
C1346      F1347   1.358       .  S
C1351      C1352   1.402       .  A
C1351      C1356   1.393       .  A
C1351      F1358   1.358       .  S
C1352      C1353   1.407       .  A
C1353      C1354   1.399       .  A
C1353      F1360   1.358       .  S
C1354      C1355   1.404       .  A
C1354      F1359   1.357       .  S
C1355      C1356   1.408       .  A
C1356      F1357   1.358       .  S
C1361      C1362   1.402       .  A
C1361      C1366   1.396       .  A
C1361      F1368   1.358       .  S
C1362      C1363   1.412       .  A
C1363      C1364   1.404       .  A
C1363      F1370   1.358       .  S
C1364      C1365   1.403       .  A
C1364      F1369   1.357       .  S
C1365      C1366   1.405       .  A
C1366      F1367   1.352       .  S
C1371      C1372   1.407   1_455  A
C1371      C1376   1.400       .  A
C1371      F1378   1.358       .  S
C1372      C1373   1.413       .  A
C1373      C1374   1.403       .  A
C1373      F1380   1.357       .  S
C1374      C1375   1.403       .  A
C1374      F1379   1.357       .  S
C1375      C1376   1.411   1_655  A
C1376      F1377   1.359       .  S
C1381      C1382   1.411       .  A
C1381      C1386   1.410       .  A
C1381      F1388   1.357       .  S
C1382      C1383   1.407       .  A
C1383      C1384   1.395       .  A
C1383      F1390   1.358       .  S
C1384      C1385   1.404       .  A
C1384      F1389   1.358       .  S
C1385      C1386   1.408       .  A
C1386      F1387   1.358       .  S
C1391      C1392   1.407       .  A
C1391      C1396   1.396       .  A
C1391      F1398   1.359       .  S
C1392      C1393   1.414       .  A
C1393      C1394   1.405       .  A
C1393      F1400   1.357       .  S
C1394      C1395   1.403       .  A
C1394      F1399   1.358       .  S
C1395      C1396   1.410       .  A
C1396      F1397   1.359       .  S
C1401      C1402   1.405       .  A
C1401      C1406   1.402       .  A
C1401      F1408   1.357   1_545  S
C1402      C1403   1.407       .  A
C1403      C1404   1.402       .  A
C1403      F1410   1.359       .  S
C1404      C1405   1.410       .  A
C1404      F1409   1.355       .  S
C1405      C1406   1.408       .  A
C1406      F1407   1.357   1_545  S
C1411      C1412   1.412       .  A
C1411      C1416   1.406       .  A
C1411      F1418   1.357       .  S
C1412      C1413   1.413       .  A
C1413      C1414   1.390       .  A
C1413      F1420   1.358       .  S
C1414      C1415   1.409       .  A
C1414      F1419   1.358       .  S
C1415      C1416   1.412       .  A
C1416      F1417   1.358       .  S
C1421      C1422   1.408       .  A
C1421      C1426   1.400       .  A
C1421      F1428   1.358       .  S
C1422      C1423   1.411       .  A
C1423      C1424   1.404       .  A
C1423      F1430   1.356       .  S
C1424      C1425   1.403       .  A
C1424      F1429   1.358       .  S
C1425      C1426   1.406       .  A
C1426      F1427   1.356       .  S
C1431      C1432   1.407   1_554  A
C1431      C1436   1.397       .  A
C1431      F1438   1.358       .  S
C1432      C1433   1.403       .  A
C1433      C1434   1.402       .  A
C1433      F1440   1.357       .  S
C1434      C1435   1.413       .  A
C1434      F1439   1.358       .  S
C1435      C1436   1.409   1_556  A
C1436      F1437   1.358       .  S
C1441      C1442   1.411       .  A
C1441      C1446   1.411       .  A
C1441      F1448   1.357       .  S
C1442      C1443   1.410       .  A
C1443      C1444   1.398       .  A
C1443      F1450   1.358       .  S
C1444      C1445   1.405       .  A
C1444      F1449   1.359       .  S
C1445      C1446   1.409       .  A
C1446      F1447   1.357       .  S
C1451      C1452   1.412       .  A
C1451      C1456   1.398       .  A
C1451      F1458   1.358       .  S
C1452      C1453   1.410       .  A
C1453      C1454   1.409       .  A
C1453      F1460   1.357       .  S
C1454      C1455   1.407       .  A
C1454      F1459   1.357       .  S
C1455      C1456   1.404       .  A
C1456      F1457   1.359       .  S
C1461      C1462   1.413       .  A
C1461      C1466   1.406       .  A
C1461      F1468   1.357       .  S
C1462      C1463   1.408   1_554  A
C1463      C1464   1.395       .  A
C1463      F1470   1.357       .  S
C1464      C1465   1.402   1_556  A
C1464      F1469   1.355       .  S
C1465      C1466   1.404       .  A
C1466      F1467   1.358       .  S
C1471      C1472   1.408       .  A
C1471      C1476   1.391       .  A
C1471      F1478   1.358       .  S
C1472      C1473   1.409       .  A
C1473      C1474   1.405       .  A
C1473      F1480   1.358       .  S
C1474      C1475   1.410       .  A
C1474      F1479   1.358       .  S
C1475      C1476   1.405       .  A
C1476      F1477   1.358       .  S
C1481      C1482   1.403       .  A
C1481      C1486   1.396       .  A
C1481      F1488   1.356       .  S
C1482      C1483   1.405       .  A
C1483      C1484   1.402       .  A
C1483      F1490   1.358       .  S
C1484      C1485   1.407       .  A
C1484      F1489   1.357       .  S
C1485      C1486   1.407       .  A
C1486      F1487   1.358       .  S
C1491      C1492   1.404   1_554  A
C1491      C1496   1.391       .  A
C1491      F1498   1.359       .  S
C1492      C1493   1.405       .  A
C1493      C1494   1.399       .  A
C1493      F1500   1.359       .  S
C1494      C1495   1.406       .  A
C1494      F1499   1.357       .  S
C1495      C1496   1.402   1_556  A
C1496      F1497   1.358       .  S
