geometry optimzed in LAMMPS
_audit_creation_date              2020-12-01 
_audit_creation_method            'lammps2cif' 
_symmetry_space_group_name_H-M    'P1' 
_symmetry_Int_Tables_number       1 
_symmetry_cell_setting            triclinic 
loop_ 
_symmetry_equiv_pos_as_xyz 
  x,y,z 
_cell_length_a                    53.09131606 
_cell_length_b                    52.66180621590391 
_cell_length_c                    52.47943475820827 
_cell_angle_alpha                 89.73928092609513 
_cell_angle_beta                  90.3397021504749 
_cell_angle_gamma                 90.23178014696963 
loop_ 
_atom_site_label 
_atom_site_type_symbol 
_atom_site_fract_x 
_atom_site_fract_y 
_atom_site_fract_z 
_atom_site_charge 
C1          C  0.06066916  0.66948224  0.94476498     0.80500
N2          N  0.04907657  0.68161012  0.92492635    -0.77800
C3          C  0.05957481  0.70256305  0.91395431     0.82900
N4          N  0.08186587  0.71149807  0.92303489    -0.77800
C5          C  0.09389790  0.69966811  0.94269993     0.83000
N6          N  0.08297467  0.67890982  0.95380103    -0.79500
C7          C  0.87458422  0.67836439  0.95297740     0.80500
N8          N  0.88640078  0.68926842  0.93267559    -0.77800
C9          C  0.87883772  0.71234156  0.92358288     0.82900
N10         N  0.85911827  0.72429026  0.93475387    -0.77800
C11         C  0.84702026  0.71332566  0.95475671     0.83000
N12         N  0.85478128  0.69043844  0.96367484    -0.79500
C13         C  0.86649051  0.66734797  0.13307790     0.80500
N14         N  0.84510299  0.67739447  0.12291193    -0.77800
C15         C  0.83452862  0.69843092  0.13325821     0.82900
N16         N  0.84586778  0.70969067  0.15358433    -0.77800
C17         C  0.86690103  0.69958127  0.16430603     0.83000
N18         N  0.87738135  0.67862467  0.15368730    -0.79500
C19         C  0.05165402  0.67773698  0.12151961     0.80500
N20         N  0.07203939  0.68871409  0.11057227    -0.77800
C21         C  0.08088810  0.71136218  0.11898856     0.82900
N22         N  0.06936589  0.72310186  0.13875007    -0.77800
C23         C  0.04910729  0.71215361  0.15024120     0.83000
N24         N  0.04040431  0.68935013  0.14153506    -0.79500
C25         C  0.86745292  0.36908743  0.13586302     0.80500
N26         N  0.84805986  0.35729530  0.12353156    -0.77800
C27         C  0.83742668  0.33577660  0.13312748     0.82900
N28         N  0.84635858  0.32592275  0.15532907    -0.77800
C29         C  0.86546305  0.33760210  0.16812669     0.83000
N30         N  0.87622174  0.35889011  0.15806299    -0.79500
C31         C  0.87369362  0.36473611  0.94325993     0.80500
N32         N  0.85293151  0.35453798  0.95454326    -0.77800
C33         C  0.84234557  0.33275496  0.94541008     0.82900
N34         N  0.85250551  0.32144269  0.92466233    -0.77800
C35         C  0.87278367  0.33187932  0.91284653     0.83000
N36         N  0.88339894  0.35333310  0.92239755    -0.79500
C37         C  0.05614071  0.36534252  0.94854259     0.80500
N38         N  0.04366797  0.35385930  0.92887445    -0.77800
C39         C  0.05261707  0.33210426  0.91831967     0.82900
N40         N  0.07386988  0.32142657  0.92793971    -0.77800
C41         C  0.08686059  0.33294019  0.94702584     0.83000
N42         N  0.07785884  0.35474214  0.95726279    -0.79500
C43         C  0.05264774  0.36339014  0.12781870     0.80500
N44         N  0.07328522  0.35225545  0.11771674    -0.77800
C45         C  0.08214973  0.32986825  0.12713479     0.82900
N46         N  0.06996484  0.31865452  0.14696832    -0.77800
C47         C  0.04935054  0.32980104  0.15731909     0.83000
N48         N  0.04076021  0.35215247  0.14771162    -0.79500
O49         O  0.01400626  0.56259304  0.08664570    -0.75000
O50         O  0.98917524  0.59089490  0.06540134    -0.53900
C51         C  0.00713306  0.58545743  0.08094236     0.78700
O52         O  0.01202030  0.47641422  0.98645623    -0.59600
O53         O  0.99113038  0.44696768  0.01055387    -0.52700
C54         C  0.00707721  0.45331902  0.99328596     0.70700
O55         O  0.01176566  0.56325958  0.98740059    -0.74200
O56         O  0.98936110  0.59151826  0.01085893    -0.54800
C57         C  0.00579387  0.58611962  0.99383324     0.76700
O58         O  0.01363435  0.47561534  0.08727422    -0.59300
O59         O  0.98948229  0.44694862  0.06581268    -0.52500
C60         C  0.00689739  0.45266385  0.08194788     0.73300
Zr61       Zr  0.00072552  0.51896311  0.07536530     2.54700
O62         O  0.04655542  0.51950614  0.07396593    -0.79900
O63         O  0.00005698  0.51747556  0.12171690    -0.93300
Zr64       Zr  0.99932036  0.51959724  0.99912219     2.64700
O65         O  0.04516982  0.51986456  0.99968132    -0.98300
O66         O  0.99688849  0.52041965  0.95279909    -0.80300
O67         O  0.00011506  0.54360309  0.03737382    -0.83700
O68         O  0.00055371  0.49495157  0.03710951    -2.18400
O69         O  0.91416271  0.47397712  0.08908080    -0.67100
O70         O  0.93531746  0.44559740  0.06466922    -0.51700
C71         C  0.91939040  0.45112388  0.08212372     0.71700
O72         O  0.91047101  0.56266930  0.98874216    -0.60000
O73         O  0.93443514  0.59103837  0.01092387    -0.52000
C74         C  0.91703044  0.58552938  0.99478064     0.73500
O75         O  0.91276830  0.47615631  0.98595883    -0.71400
O76         O  0.93584013  0.44708003  0.00814906    -0.50100
C77         C  0.91915976  0.45314692  0.99131945     0.74900
O78         O  0.91083513  0.56000248  0.08793632    -0.66700
O79         O  0.93264291  0.58961958  0.06531583    -0.53900
C80         C  0.91580330  0.58317322  0.08175987     0.73300
Zr81       Zr  0.92549412  0.51754092  0.07633661     2.77500
O82         O  0.87966846  0.51590122  0.07757499    -0.97500
O83         O  0.92920880  0.51800657  0.12263287    -0.78300
Zr84       Zr  0.92413157  0.51917898  0.99986274     2.70100
O85         O  0.87828540  0.51802919  0.99971938    -0.79500
O86         O  0.92663567  0.52164636  0.95361668    -0.98600
Zr87       Zr  0.96175573  0.56672117  0.03818401     2.21500
Zr88       Zr  0.96256146  0.47063391  0.03726038     2.11100
O89         O  0.92428157  0.49407300  0.03775764    -2.47300
O90         O  0.92394494  0.54250580  0.03847110    -0.79300
O91         O  0.96337126  0.49381780  0.07604406    -0.71500
O92         O  0.96159450  0.54375907  0.99925311    -2.32500
O93         O  0.96279127  0.54274797  0.07674259    -2.28700
O94         O  0.96178745  0.49484048  0.99885520    -0.73300
H95         H  0.01516804  0.48406957  0.03694202     0.78700
H96         H  0.96132414  0.55510351  0.98474979     0.79800
H97         H  0.90989709  0.48281795  0.03769231     0.82000
H98         H  0.96288828  0.55381145  0.09134309     0.79600
H99         H  0.98253500  0.50910377  0.94859754     0.42700
H100        H  0.93441645  0.50542188  0.94846782     0.41600
H101        H  0.87341929  0.52264177  0.98205853     0.41300
H102        H  0.87478131  0.50445425  0.06345881     0.39200
H103        H  0.93751035  0.53437657  0.12668765     0.42400
H104        H  0.98917223  0.53178251  0.12675165     0.37200
H105        H  0.05192178  0.51919770  0.09206415     0.43300
H106        H  0.04996230  0.52426332  0.98199320     0.39700
H107        H  0.87560759  0.50625032  0.09326697     0.44600
H108        H  0.01723451  0.52261195  0.12706881     0.43300
H109        H  0.04983042  0.53502979  0.00978192     0.43500
H110        H  0.90895174  0.52029137  0.94768255     0.43800
C111        C  0.61509682  0.92951007  0.13360781     0.80500
N112        N  0.62642581  0.90937236  0.12225296    -0.77800
C113        C  0.64685498  0.89816606  0.13330595     0.82900
N114        N  0.65566360  0.90708879  0.15595272    -0.77800
C115        C  0.64398603  0.92668820  0.16778712     0.83000
N116        N  0.62401587  0.93797693  0.15628461    -0.79500
C117        C  0.62149864  0.93435801  0.95030515     0.80500
N118        N  0.63185533  0.94578161  0.92954088    -0.77800
C119        C  0.65403101  0.93729948  0.91980130     0.82900
N120        N  0.66553305  0.91699809  0.93082535    -0.77800
C121        C  0.65504965  0.90518801  0.95122106     0.83000
N122        N  0.63320103  0.91405955  0.96090843    -0.79500
C123        C  0.61255384  0.11925393  0.94042405     0.80500
N124        N  0.62476586  0.13876889  0.95216213    -0.77800
C125        C  0.64647622  0.14857997  0.94241325     0.82900
N126        N  0.65591136  0.13865890  0.92068699    -0.77800
C127        C  0.64403697  0.11920420  0.90861571     0.83000
N128        N  0.62264427  0.10924723  0.91886925    -0.79500
C129        C  0.61849115  0.11312407  0.13103048     0.80500
N130        N  0.62957984  0.13401311  0.12044773    -0.77800
C131        C  0.65206166  0.14295032  0.12936056     0.82900
N132        N  0.66399851  0.13037442  0.14858232    -0.77800
C133        C  0.65313991  0.10958398  0.15932128     0.83000
N134        N  0.63062410  0.10106365  0.15038997    -0.79500
C135        C  0.31156875  0.11573962  0.94749980     0.80500
N136        N  0.30056195  0.10618088  0.92611780    -0.77800
C137        C  0.28005184  0.11746124  0.91544856     0.82900
N138        N  0.27011962  0.13825066  0.92675782    -0.77800
C139        C  0.28079142  0.14818793  0.94812195     0.83000
N140        N  0.30165922  0.13691489  0.95829030    -0.79500
C141        C  0.31413688  0.92622392  0.94232739     0.80500
N142        N  0.30259147  0.93834284  0.92253869    -0.77800
C143        C  0.28069483  0.92909121  0.91249342     0.82900
N144        N  0.27058713  0.90750643  0.92241492    -0.77800
C145        C  0.28200715  0.89512912  0.94208454     0.83000
N146        N  0.30360485  0.90481940  0.95218507    -0.79500
C147        C  0.31253553  0.92600678  0.12834413     0.80500
N148        N  0.30083721  0.90518462  0.11860597    -0.77800
C149        C  0.27956441  0.89576462  0.12942851     0.82900
N150        N  0.26974949  0.90744445  0.15000434    -0.77800
C151        C  0.28148635  0.92782832  0.16046436     0.83000
N152        N  0.30272685  0.93723715  0.14940826    -0.79500
C153        C  0.31429057  0.11586584  0.12897908     0.80500
N154        N  0.30424797  0.10398285  0.14967525    -0.77800
C155        C  0.28314174  0.11314843  0.16090988     0.82900
N156        N  0.27176857  0.13407580  0.15097605    -0.77800
C157        C  0.28158387  0.14626135  0.13044867     0.83000
N158        N  0.30295908  0.13710326  0.11969243    -0.79500
O159        O  0.50833533  0.07239095  0.08815146    -0.75000
O160        O  0.53713911  0.05073312  0.06460503    -0.53900
C161        C  0.53113594  0.06717025  0.08151006     0.78700
O162        O  0.42213758  0.97083482  0.08863140    -0.59600
O163        O  0.39310835  0.99238744  0.06484855    -0.52700
C164        C  0.39923956  0.97601278  0.08206048     0.70700
O165        O  0.50755127  0.97124771  0.08837616    -0.74200
O166        O  0.53643418  0.99484018  0.06651026    -0.54800
C167        C  0.53034188  0.97758522  0.08283589     0.76700
O168        O  0.42253454  0.07232053  0.08755002    -0.59300
O169        O  0.39347389  0.04955502  0.06483611    -0.52500
C170        C  0.39968904  0.06639204  0.08149475     0.73300
Zr171      Zr  0.46522962  0.05984102  0.07530159     2.54700
O172        O  0.46603352  0.06032370  0.12165816    -0.79900
O173        O  0.46453825  0.10600111  0.07228500    -0.93300
Zr174      Zr  0.46491061  0.98417143  0.07609348     2.64700
O175        O  0.46723716  0.98745458  0.12230524    -0.98300
O176        O  0.46346902  0.93798234  0.07702378    -0.80300
O177        O  0.48943222  0.02208612  0.07623497    -0.83700
O178        O  0.44064851  0.02185215  0.07623450    -2.18400
O179        O  0.42128685  0.07314721  0.98857119    -0.67100
O180        O  0.39275380  0.04869542  0.01005961    -0.51700
C181        C  0.39851862  0.06655080  0.99435276     0.71700
O182        O  0.50821392  0.97178172  0.98687020    -0.60000
O183        O  0.53651428  0.99450191  0.01041544    -0.52000
C184        C  0.53092941  0.97792037  0.99337025     0.73500
O185        O  0.42256433  0.97019742  0.98739701    -0.71400
O186        O  0.39342241  0.99261750  0.00929110    -0.50100
C187        C  0.39954915  0.97573362  0.99271475     0.74900
O188        O  0.50755331  0.07220371  0.98635440    -0.66700
O189        O  0.53661997  0.04911935  0.00860029    -0.53900
C190        C  0.53048526  0.06584661  0.99175050     0.73300
Zr191      Zr  0.46460991  0.05962197  0.99936503     2.77500
O192        O  0.46354288  0.05751928  0.95304275    -0.97500
O193        O  0.46550676  0.10581798  0.00036954    -0.78300
Zr194      Zr  0.46529982  0.98375542  0.99991649     2.70100
O195        O  0.46550641  0.98565329  0.95359132    -0.79500
O196        O  0.46693936  0.93760515  0.00262652    -0.98600
Zr197      Zr  0.51298191  0.02228226  0.03777563     2.21500
Zr198      Zr  0.41683280  0.02096621  0.03752246     2.11100
O199        O  0.44064992  0.02136517  0.99910442    -2.47300
O200        O  0.48919169  0.02197820  0.99928455    -0.79300
O201        O  0.44055131  0.05950067  0.03735038    -0.71500
O202        O  0.48932029  0.98371646  0.03818691    -2.32500
O203        O  0.48919674  0.06050599  0.03730404    -2.28700
O204        O  0.44089868  0.98300753  0.03779956    -0.73300
H205        H  0.42972541  0.02186396  0.09088791     0.78700
H206        H  0.50025246  0.96921679  0.03833236     0.79800
H207        H  0.42964437  0.02124785  0.98432321     0.82000
H208        H  0.50015789  0.07525654  0.03710217     0.79600
H209        H  0.47297887  0.93274888  0.06176699     0.42700
H210        H  0.45003485  0.93235651  0.00858911     0.41600
H211        H  0.46642357  0.96769603  0.94819985     0.41300
H212        H  0.46943614  0.07445571  0.94731014     0.39200
H213        H  0.47016012  0.11096889  0.98284640     0.42400
H214        H  0.45193822  0.10967609  0.05879068     0.37200
H215        H  0.46973636  0.04256692  0.12662031     0.43300
H216        H  0.45130603  0.99570517  0.12729697     0.39700
H217        H  0.47744871  0.04588272  0.94864269     0.44600
H218        H  0.48087974  0.11070143  0.06455072     0.43300
H219        H  0.46564932  0.96973977  0.12849825     0.43500
H220        H  0.46764400  0.93187113  0.98470914     0.43800
C221        C  0.06121431  0.92858944  0.69107907     0.80500
N222        N  0.05026863  0.90748573  0.70126110    -0.77800
C223        C  0.05963604  0.89660149  0.72287346     0.82900
N224        N  0.07991722  0.90740423  0.73468457    -0.77800
C225        C  0.09126778  0.92834083  0.72463110     0.83000
N226        N  0.08187761  0.93863631  0.70273816    -0.79500
C227        C  0.87582376  0.93255706  0.69645673     0.80500
N228        N  0.85581285  0.94431328  0.70730392    -0.77800
C229        C  0.84569630  0.93509079  0.72926742     0.82900
N230        N  0.85569052  0.91401153  0.74043821    -0.77800
C231        C  0.87552779  0.90191047  0.72967610     0.83000
N232        N  0.88535238  0.91133503  0.70766023    -0.79500
C233        C  0.87092368  0.11262074  0.68717684     0.80500
N234        N  0.88226200  0.13346786  0.69741733    -0.77800
C235        C  0.87276420  0.14452098  0.71872184     0.82900
N236        N  0.85162959  0.13475980  0.72943140    -0.77800
C237        C  0.83986806  0.11431898  0.71908152     0.83000
N238        N  0.84980364  0.10308004  0.69819145    -0.79500
C239        C  0.05955779  0.11664423  0.68615952     0.80500
N240        N  0.04833843  0.13647816  0.69807424    -0.77800
C241        C  0.05694875  0.14488622  0.72102777     0.82900
N242        N  0.07684245  0.13289142  0.73223832    -0.77800
C243        C  0.08816175  0.11296329  0.72052662     0.83000
N244        N  0.07929636  0.10480364  0.69763575    -0.79500
C245        C  0.87047530  0.11225167  0.38534223     0.80500
N246        N  0.87932926  0.13463994  0.37596903    -0.77800
C247        C  0.86958529  0.14513739  0.35428490     0.82900
N248        N  0.85090157  0.13255331  0.34179420    -0.77800
C249        C  0.84215740  0.10995956  0.35072832     0.83000
N250        N  0.85201376  0.09984239  0.37241527    -0.79500
C251        C  0.86997166  0.92217204  0.38723438     0.80500
N252        N  0.88081786  0.90287187  0.37428002    -0.77800
C253        C  0.87080346  0.89441855  0.35193808     0.82900
N254        N  0.84971411  0.90559925  0.34239207    -0.77800
C255        C  0.83847996  0.92489195  0.35514970     0.83000
N256        N  0.84894668  0.93321161  0.37728825    -0.79500
C257        C  0.05958670  0.92566007  0.38391920     0.80500
N258        N  0.04771912  0.90614094  0.37173833    -0.77800
C259        C  0.05686544  0.89678206  0.34940851     0.82900
N260        N  0.07822779  0.90709432  0.33940011    -0.77800
C261        C  0.09071026  0.92611381  0.35172433     0.83000
N262        N  0.08113864  0.93524561  0.37379579    -0.79500
C263        C  0.05358530  0.10641515  0.37821042     0.80500
N264        N  0.07474390  0.09681173  0.36749728    -0.77800
C265        C  0.08445042  0.10719078  0.34579914     0.82900
N266        N  0.07261552  0.12742605  0.33494729    -0.77800
C267        C  0.05149754  0.13718682  0.34562168     0.83000
N268        N  0.04205283  0.12664786  0.36722091    -0.79500
O269        O  0.01628801  0.96828721  0.58043116    -0.75000
O270        O  0.99480209  0.99198860  0.60934953    -0.53900
C271        C  0.01109146  0.97495579  0.60344096     0.78700
O272        O  0.01590854  0.06749739  0.49197227    -0.59600
O273        O  0.99250166  0.04448111  0.46385828    -0.52700
C274        C  0.00938737  0.06127208  0.46907830     0.70700
O275        O  0.01579789  0.07000870  0.57899848    -0.74200
O276        O  0.99383393  0.04730276  0.60851729    -0.54800
C277        C  0.00976459  0.06459819  0.60225617     0.76700
O278        O  0.01421141  0.96563906  0.49397376    -0.59300
O279        O  0.99246836  0.98877454  0.46439916    -0.52500
C280        C  0.00860426  0.97160115  0.47074489     0.73300
Zr281      Zr  0.00241877  0.97958267  0.53708257     2.54700
O282        O  0.04825451  0.97872668  0.53593646    -0.79900
O283        O  0.99793673  0.93357756  0.53671579    -0.93300
Zr284      Zr  0.00364350  0.05576556  0.53578949     2.64700
O285        O  0.04950100  0.05530244  0.53686055    -0.98300
O286        O  0.00154928  0.10188922  0.53388419    -0.80300
O287        O  0.00384431  0.01803795  0.56086039    -0.83700
O288        O  0.00342045  0.01727629  0.51210405    -2.18400
O289        O  0.91596947  0.96575724  0.49503346    -0.67100
O290        O  0.93661986  0.98953228  0.46513085    -0.51700
C291        C  0.92073623  0.97230074  0.47177928     0.71700
O292        O  0.91512971  0.06838909  0.57883982    -0.60000
O293        O  0.93789989  0.04686782  0.60863766    -0.52000
C294        C  0.92091972  0.06316191  0.60212953     0.73500
O295        O  0.91604397  0.06872054  0.49266121    -0.71400
O296        O  0.93863604  0.04595199  0.46390983    -0.50100
C297        C  0.92235745  0.06297150  0.46970680     0.74900
O298        O  0.91400394  0.97097572  0.58250818    -0.66700
O299        O  0.93869777  0.99278072  0.61063347    -0.53900
C300        C  0.92082620  0.97709242  0.60540633     0.73300
Zr301      Zr  0.92729493  0.98045825  0.53819315     2.77500
O302        O  0.88167577  0.98313211  0.53432048    -0.97500
O303        O  0.92577549  0.93442980  0.54238207    -0.78300
Zr304      Zr  0.92846872  0.05613230  0.53602099     2.70100
O305        O  0.88261170  0.05614222  0.53549418    -0.79500
O306        O  0.93121004  0.10227525  0.53616016    -0.98600
Zr307      Zr  0.96618259  0.01906915  0.58527070     2.21500
Zr308      Zr  0.96512645  0.01705908  0.48825128     2.11100
O309        O  0.92728608  0.01777725  0.51251496    -2.47300
O310        O  0.92774250  0.01886627  0.56168167    -0.79300
O311        O  0.96446483  0.97909412  0.51303106    -0.71500
O312        O  0.96625890  0.05702081  0.56042579    -2.32500
O313        O  0.96532405  0.98005610  0.56229380    -2.28700
O314        O  0.96581814  0.05585764  0.51131340    -0.73300
H315        H  0.01784525  0.01690692  0.50094477     0.78700
H316        H  0.96632193  0.07188255  0.57113657     0.79800
H317        H  0.91268138  0.01771637  0.50144645     0.82000
H318        H  0.96525938  0.96573161  0.57383412     0.79600
H319        H  0.01915728  0.10758739  0.53655815     0.42700
H320        H  0.94141963  0.10660022  0.52100956     0.41600
H321        H  0.87784931  0.03972974  0.52766611     0.41300
H322        H  0.87566954  0.96549487  0.53693128     0.39200
H323        H  0.94359944  0.92907527  0.54166031     0.42400
H324        H  0.98991581  0.92923739  0.55313745     0.37200
H325        H  0.05243982  0.96214672  0.52824488     0.43300
H326        H  0.05380998  0.04505762  0.55213147     0.39700
H327        H  0.87627009  0.99234508  0.54973542     0.44600
H328        H  0.01535808  0.92713407  0.53831178     0.43300
H329        H  0.05432827  0.04447124  0.52232771     0.43500
H330        H  0.91398593  0.10801653  0.53174607     0.43800
C331        C  0.93666206  0.29194742  0.23525228    -0.10600
C332        C  0.95930017  0.29988179  0.22450239    -0.04500
C333        C  0.98219326  0.28889716  0.23150102    -0.10600
C334        C  0.98276787  0.26974872  0.25040421     0.10400
C335        C  0.96013001  0.26295389  0.26303474    -0.02400
C336        C  0.93696720  0.27430147  0.25559560     0.10200
C337        C  0.91479193  0.26741565  0.26832777    -0.12400
C338        C  0.91525488  0.24946698  0.28792331    -0.12400
C339        C  0.93773031  0.23702184  0.29474191     0.10200
C340        C  0.96047021  0.24398121  0.28231307    -0.02400
C341        C  0.00512154  0.25686078  0.25654517    -0.12500
C342        C  0.00532606  0.23771456  0.27496999    -0.12500
C343        C  0.98336148  0.23133616  0.28840585     0.10400
C344        C  0.98338618  0.21211310  0.30726779    -0.10600
C345        C  0.96088958  0.20557966  0.31929773    -0.04500
C346        C  0.93810610  0.21751833  0.31339421    -0.10600
H347        H  0.89695495  0.27607756  0.26334465     0.07600
H348        H  0.89773880  0.24522998  0.29751240     0.07600
H349        H  0.02258711  0.26135105  0.24694136     0.07800
H350        H  0.02289972  0.22799126  0.27870965     0.07800
H351        H  0.95888349  0.31353131  0.20892999     0.04200
H352        H  0.96094514  0.18985280  0.33273166     0.04200
C353        C  0.23353566  0.99617006  0.22845241    -0.10600
C354        C  0.24231177  0.01926139  0.21871051    -0.04500
C355        C  0.23426670  0.04254567  0.22822685    -0.10600
C356        C  0.21677971  0.04289581  0.24856231     0.10400
C357        C  0.20781523  0.01951808  0.25891850    -0.02400
C358        C  0.21663344  0.99605180  0.24916231     0.10200
C359        C  0.20832346  0.97322614  0.26031810    -0.12400
C360        C  0.19045619  0.97327322  0.27970170    -0.12400
C361        C  0.18031122  0.99614396  0.28861041     0.10200
C362        C  0.18960320  0.01956606  0.27870457    -0.02400
C363        C  0.20790697  0.06579746  0.25871137    -0.12500
C364        C  0.18985239  0.06585176  0.27800810    -0.12500
C365        C  0.18015508  0.04299088  0.28797996     0.10400
C366        C  0.16128236  0.04275807  0.30702811    -0.10600
C367        C  0.15213995  0.01947260  0.31610849    -0.04500
C368        C  0.16087199  0.99629755  0.30695127    -0.10600
H369        H  0.21531394  0.95510719  0.25379902     0.07600
H370        H  0.18427331  0.95519999  0.28740952     0.07600
H371        H  0.21469996  0.08387151  0.25155492     0.07800
H372        H  0.18348596  0.08399729  0.28505977     0.07800
H373        H  0.25531475  0.01910851  0.20281395     0.04200
H374        H  0.13684461  0.01936718  0.32974734     0.04200
C375        C  0.15846087  0.29122098  0.06182478    -0.10600
C376        C  0.14823566  0.29826423  0.03830658    -0.04500
C377        C  0.15749082  0.28883130  0.01547049    -0.10600
C378        C  0.17844821  0.27234587  0.01580621     0.10400
C379        C  0.18912188  0.26479117  0.03957111    -0.02400
C380        C  0.17898687  0.27412131  0.06272376     0.10200
C381        C  0.18961052  0.26612376  0.08599385    -0.12400
C382        C  0.20947054  0.24879395  0.08661688    -0.12400
C383        C  0.21953770  0.23901019  0.06398600     0.10200
C384        C  0.20955154  0.24740505  0.04019101    -0.02400
C385        C  0.18875534  0.26299106  0.99315866    -0.12500
C386        C  0.20909781  0.24631440  0.99373981    -0.12500
C387        C  0.21954026  0.23798667  0.01700809     0.10400
C388        C  0.23965958  0.22038988  0.01779125    -0.10600
C389        C  0.24903557  0.21223860  0.04135938    -0.04500
C390        C  0.23933653  0.22102081  0.06438028    -0.10600
H391        H  0.18254580  0.27317314  0.10392221     0.07600
H392        H  0.21697851  0.24315010  0.10500423     0.07600
H393        H  0.18114722  0.26857565  0.97479014     0.07800
H394        H  0.21653015  0.23990715  0.97573201     0.07800
H395        H  0.13187441  0.31057078  0.03779605     0.04200
H396        H  0.26356685  0.19779622  0.04179170     0.04200
C397        C  0.68824607  0.99468668  0.23896201    -0.10600
C398        C  0.68005541  0.01761212  0.22841035    -0.04500
C399        C  0.69153638  0.04067475  0.23455921    -0.10600
C400        C  0.71130747  0.04114722  0.25274223     0.10400
C401        C  0.71906820  0.01809031  0.26456399    -0.02400
C402        C  0.70731450  0.99477794  0.25784414     0.10200
C403        C  0.71543696  0.97215739  0.26953828    -0.12400
C404        C  0.73568559  0.97217563  0.28660764    -0.12400
C405        C  0.74823598  0.99486821  0.29277554     0.10200
C406        C  0.73950583  0.01814663  0.28211613    -0.02400
C407        C  0.72386902  0.06384435  0.25896770    -0.12500
C408        C  0.74372184  0.06396294  0.27651830    -0.12500
C409        C  0.75178454  0.04136084  0.28827618     0.10400
C410        C  0.77213107  0.04110416  0.30573818    -0.10600
C411        C  0.78058631  0.01809814  0.31577891    -0.04500
C412        C  0.76955140  0.99504100  0.30906268    -0.10600
H413        H  0.70645462  0.95419862  0.26510757     0.07600
H414        H  0.74165094  0.95424692  0.29477659     0.07600
H415        H  0.71840749  0.08169090  0.25026805     0.07800
H416        H  0.75288943  0.08188708  0.28068061     0.07800
H417        H  0.66588809  0.01725636  0.21339856     0.04200
H418        H  0.79682298  0.01806930  0.32847267     0.04200
C419        C  0.93781397  0.75200033  0.22770484    -0.10600
C420        C  0.96049868  0.74346550  0.21765368    -0.04500
C421        C  0.98374606  0.75269495  0.22615939    -0.10600
C422        C  0.98463045  0.77086194  0.24596409     0.10400
C423        C  0.96175994  0.77959362  0.25673633    -0.02400
C424        C  0.93821789  0.77015449  0.24757340     0.10200
C425        C  0.91586707  0.77929788  0.25831805    -0.12400
C426        C  0.91650119  0.79769016  0.27741276    -0.12400
C427        C  0.93952551  0.80736758  0.28665173     0.10200
C428        C  0.96242447  0.79810794  0.27641109    -0.02400
C429        C  0.00765640  0.78034220  0.25538680    -0.12500
C430        C  0.00831092  0.79837038  0.27484446    -0.12500
C431        C  0.98596303  0.80768839  0.28546223     0.10400
C432        C  0.98636984  0.82637750  0.30487585    -0.10600
C433        C  0.96360919  0.83533577  0.31443845    -0.04500
C434        C  0.94035751  0.82618663  0.30580589    -0.10600
H435        H  0.89769435  0.77239474  0.25184861     0.07600
H436        H  0.89876614  0.80425210  0.28498815     0.07600
H437        H  0.02538553  0.77378028  0.24780194     0.07800
H438        H  0.02650041  0.80503798  0.28149880     0.07800
H439        H  0.96001322  0.72988954  0.20214140     0.04200
H440        H  0.96397388  0.85035053  0.32855005     0.04200
C441        C  0.23363999  0.00275186  0.84679165    -0.10600
C442        C  0.24014344  0.02621327  0.85718364    -0.04500
C443        C  0.23057499  0.04895754  0.84751089    -0.10600
C444        C  0.21355745  0.04836402  0.82658015     0.10400
C445        C  0.20635514  0.02453701  0.81597951    -0.02400
C446        C  0.21626020  0.00162354  0.82629336     0.10200
C447        C  0.20847626  0.97827438  0.81594968    -0.12400
C448        C  0.19100397  0.97730751  0.79600902    -0.12400
C449        C  0.18097619  0.99966130  0.78543980     0.10200
C450        C  0.18893704  0.02356887  0.79528479    -0.02400
C451        C  0.20326032  0.07070499  0.81625058    -0.12500
C452        C  0.18590151  0.06974026  0.79613793    -0.12500
C453        C  0.17868937  0.04644388  0.78522200     0.10400
C454        C  0.16099563  0.04522618  0.76494031    -0.10600
C455        C  0.15382075  0.02154289  0.75526749    -0.04500
C456        C  0.16298764  0.99880342  0.76541775    -0.10600
H457        H  0.21576910  0.96051651  0.82332339     0.07600
H458        H  0.18550791  0.95886734  0.78876204     0.07600
H459        H  0.20835972  0.08909448  0.82390331     0.07800
H460        H  0.17815937  0.08744871  0.78913570     0.07800
H461        H  0.25294760  0.02677556  0.87339080     0.04200
H462        H  0.13920239  0.02075044  0.74072687     0.04200
C463        C  0.94072438  0.28430188  0.84500912    -0.10600
C464        C  0.96350948  0.29180614  0.85602905    -0.04500
C465        C  0.98661848  0.28385833  0.84652839    -0.10600
C466        C  0.98717551  0.26821841  0.82460422     0.10400
C467        C  0.96407697  0.26044898  0.81303257    -0.02400
C468        C  0.94074084  0.26871202  0.82316244     0.10200
C469        C  0.91815756  0.26087574  0.81147106    -0.12400
C470        C  0.91835220  0.24445339  0.79067745    -0.12400
C471        C  0.94114099  0.23529964  0.78085130     0.10200
C472        C  0.96427237  0.24375605  0.79180302    -0.02400
C473        C  0.00998005  0.25963544  0.81437281    -0.12500
C474        C  0.01016896  0.24314575  0.79357870    -0.12500
C475        C  0.98756368  0.23471410  0.78227013     0.10400
C476        C  0.98753325  0.21709545  0.76196120    -0.10600
C477        C  0.96460562  0.20887108  0.75162690    -0.04500
C478        C  0.94149177  0.21759457  0.76059250    -0.10600
H479        H  0.90012783  0.26716189  0.81857123     0.07600
H480        H  0.90045786  0.23879468  0.78244129     0.07600
H481        H  0.02783641  0.26536330  0.82265221     0.07800
H482        H  0.02820471  0.23686157  0.78649889     0.07800
H483        H  0.96321285  0.30367004  0.87290143     0.04200
H484        H  0.96473906  0.19428135  0.73707572     0.04200
C485        C  0.16299450  0.74827709  0.01019536    -0.10600
C486        C  0.15337859  0.73883161  0.03299773    -0.04500
C487        C  0.16021969  0.74911211  0.05647822    -0.10600
C488        C  0.17827251  0.76882534  0.05756293     0.10400
C489        C  0.18894393  0.77813263  0.03457947    -0.02400
C490        C  0.18149019  0.76762610  0.01076656     0.10200
C491        C  0.19242928  0.77693163  0.98829777    -0.12400
C492        C  0.20963670  0.79697786  0.98903392    -0.12400
C493        C  0.21615539  0.80861792  0.01222907     0.10200
C494        C  0.20614628  0.79879160  0.03530670    -0.02400
C495        C  0.18557505  0.77970745  0.08086814    -0.12500
C496        C  0.20285997  0.79971159  0.08162474    -0.12500
C497        C  0.21293575  0.80986827  0.05905162     0.10400
C498        C  0.22945650  0.83097630  0.05943197    -0.10600
C499        C  0.23880090  0.84065679  0.03648946    -0.04500
C500        C  0.23226177  0.82999380  0.01301134    -0.10600
H501        H  0.18752947  0.76887766  0.96996716     0.07600
H502        H  0.21744251  0.80365160  0.97119254     0.07600
H503        H  0.17795404  0.77275680  0.09869136     0.07800
H504        H  0.20794624  0.80748769  0.10002237     0.07800
H505        H  0.13853328  0.72458443  0.03232270     0.04200
H506        H  0.25132974  0.85699553  0.03690358     0.04200
C507        C  0.76751640  0.29441787  0.01384351    -0.10600
C508        C  0.77703625  0.30285554  0.03722691    -0.04500
C509        C  0.76871469  0.29278998  0.06036625    -0.10600
C510        C  0.75002691  0.27357815  0.06039998     0.10400
C511        C  0.73969628  0.26505983  0.03687006    -0.02400
C512        C  0.74836989  0.27557298  0.01347959     0.10200
C513        C  0.73792144  0.26674513  0.99046803    -0.12400
C514        C  0.71943059  0.24775205  0.99033925    -0.12400
C515        C  0.71108572  0.23660852  0.01319563     0.10200
C516        C  0.72130973  0.24535108  0.03671476    -0.02400
C517        C  0.74155165  0.26258849  0.08326816    -0.12500
C518        C  0.72378489  0.24301515  0.08309392    -0.12500
C519        C  0.71370119  0.23392452  0.06006312     0.10400
C520        C  0.69651365  0.21336823  0.05961300    -0.10600
C521        C  0.68636525  0.20535618  0.03644016    -0.04500
C522        C  0.69298581  0.21673867  0.01334032    -0.10600
H523        H  0.74393463  0.27460413  0.97238545     0.07600
H524        H  0.71186840  0.24164922  0.97215574     0.07600
H525        H  0.74882711  0.26888539  0.10150030     0.07800
H526        H  0.71810592  0.23488751  0.10116913     0.07800
H527        H  0.79223552  0.31671228  0.03738501     0.04200
H528        H  0.67339727  0.18935209  0.03632156     0.04200
C529        C  0.94379665  0.75030845  0.84538139    -0.10600
C530        C  0.96668560  0.74014354  0.85363498    -0.04500
C531        C  0.98970793  0.74853985  0.84396375    -0.10600
C532        C  0.98997678  0.76761094  0.82478316     0.10400
C533        C  0.96678968  0.77787936  0.81574906    -0.02400
C534        C  0.94359778  0.76915808  0.82606718     0.10200
C535        C  0.92092340  0.77958761  0.81696581    -0.12400
C536        C  0.92092117  0.79847516  0.79819193    -0.12400
C537        C  0.94362317  0.80801762  0.78826080     0.10200
C538        C  0.96682821  0.79757582  0.79707114    -0.02400
C539        C  0.01266409  0.77678414  0.81453009    -0.12500
C540        C  0.01270667  0.79610233  0.79617106    -0.12500
C541        C  0.99009265  0.80718541  0.78768649     0.10400
C542        C  0.98997851  0.82790601  0.77036481    -0.10600
C543        C  0.96700165  0.83780770  0.76194422    -0.04500
C544        C  0.94388479  0.82791282  0.76994251    -0.10600
H545        H  0.90297483  0.77305060  0.82424045     0.07600
H546        H  0.90295014  0.80575721  0.79168769     0.07600
H547        H  0.03057566  0.76910586  0.82074715     0.07800
H548        H  0.03066476  0.80262750  0.78891506     0.07800
H549        H  0.96666104  0.72635442  0.86908733     0.04200
H550        H  0.96713147  0.85406771  0.74914618     0.04200
C551        C  0.69258064  0.05046826  0.84106682    -0.10600
C552        C  0.68271762  0.02762928  0.85021592    -0.04500
C553        C  0.69239933  0.00418021  0.84290715    -0.10600
C554        C  0.71224410  0.00327000  0.82504102     0.10400
C555        C  0.72174308  0.02627324  0.81455633    -0.02400
C556        C  0.71191947  0.05002893  0.82260490     0.10200
C557        C  0.72191001  0.07254158  0.81227866    -0.12400
C558        C  0.74141352  0.07182848  0.79456321    -0.12400
C559        C  0.75151432  0.04857154  0.78654511     0.10200
C560        C  0.74161269  0.02553803  0.79656208    -0.02400
C561        C  0.72289502  0.98006307  0.81752014    -0.12500
C562        C  0.74266058  0.97937453  0.80011247    -0.12500
C563        C  0.75211194  0.00182412  0.78921750     0.10400
C564        C  0.77178656  0.00139108  0.77108637    -0.10600
C565        C  0.78051302  0.02422216  0.76081567    -0.04500
C566        C  0.77154122  0.04759983  0.76899190    -0.10600
H567        H  0.71471817  0.09087210  0.81793880     0.07600
H568        H  0.74859759  0.08965651  0.78718063     0.07600
H569        H  0.71593607  0.96219445  0.82499680     0.07800
H570        H  0.75026430  0.96108043  0.79490289     0.07800
H571        H  0.66832697  0.02818558  0.86481922     0.04200
H572        H  0.79602178  0.02386166  0.74740872     0.04200
C573        C  0.76749292  0.75016118  0.06513681    -0.10600
C574        C  0.77719422  0.74214916  0.04190955    -0.04500
C575        C  0.77102708  0.75418184  0.01902177    -0.10600
C576        C  0.75313580  0.77398031  0.01888801     0.10400
C577        C  0.74172679  0.78137270  0.04217416    -0.02400
C578        C  0.74906496  0.76958430  0.06549045     0.10200
C579        C  0.73809060  0.77778008  0.08834323    -0.12400
C580        C  0.72016649  0.79722159  0.08837568    -0.12400
C581        C  0.71260290  0.80909978  0.06555131     0.10200
C582        C  0.72366728  0.80123413  0.04222831    -0.02400
C583        C  0.74655932  0.78668309  0.99624577    -0.12500
C584        C  0.72869796  0.80601882  0.99625932    -0.12500
C585        C  0.71714917  0.81362193  0.01899127     0.10400
C586        C  0.69937830  0.83349402  0.01924873    -0.10600
C587        C  0.68798680  0.84026496  0.04206609    -0.04500
C588        C  0.69440565  0.82878002  0.06518930    -0.10600
H589        H  0.74331638  0.76911566  0.10635579     0.07600
H590        H  0.71214761  0.80285146  0.10640356     0.07600
H591        H  0.75506335  0.78157295  0.97829063     0.07800
H592        H  0.72405908  0.81510597  0.97829511     0.07800
H593        H  0.79167266  0.72762525  0.04189700     0.04200
H594        H  0.67457545  0.85579291  0.04199437     0.04200
C595        C  0.03966103  0.18221988  0.34067581    -0.05500
C596        C  0.03698910  0.15703168  0.33235022     0.00400
C597        C  0.01867615  0.15105919  0.31351447    -0.08200
C598        C  0.00383078  0.17068495  0.30349653    -0.05500
C599        C  0.00523166  0.19547498  0.31298267     0.00400
C600        C  0.02355338  0.20159495  0.33171201    -0.08100
C601        C  0.02505857  0.22799927  0.34314022     0.62300
H602        H  0.05354596  0.18627397  0.35532350     0.13000
H603        H  0.98928682  0.16613485  0.28961315     0.13000
C604        C  0.01251527  0.12438864  0.30435216     0.62500
F605        F  0.00245439  0.23388079  0.35462087    -0.22600
F606        F  0.03000481  0.24570186  0.32430573    -0.20000
F607        F  0.04396427  0.22981298  0.36133056    -0.19600
F608        F  0.02656307  0.10564891  0.31606391    -0.19700
F609        F  0.01654565  0.12308946  0.27838346    -0.20000
F610        F  0.98739061  0.11922813  0.30908133    -0.22700
C611        C  0.13148042  0.07795396  0.29909098    -0.05500
C612        C  0.14787868  0.06577878  0.31621110     0.00400
C613        C  0.14583662  0.07100223  0.34255835    -0.08200
C614        C  0.12532678  0.08527038  0.35115837    -0.05500
C615        C  0.10749774  0.09579152  0.33429396     0.00400
C616        C  0.11145739  0.09329055  0.30755649    -0.08100
C617        C  0.09400385  0.10518387  0.28786817     0.62300
H618        H  0.13337045  0.07374008  0.27901662     0.13000
H619        H  0.12303432  0.08787038  0.37149995     0.13000
C620        C  0.16421505  0.06099434  0.36237918     0.62500
F621        F  0.10087040  0.09916326  0.26321497    -0.22600
F622        F  0.09474527  0.13133939  0.28996919    -0.20000
F623        F  0.06970197  0.09651777  0.29149405    -0.19600
F624        F  0.17169640  0.08065204  0.37815434    -0.19700
F625        F  0.18564431  0.05087270  0.35161344    -0.20000
F626        F  0.15251164  0.04249333  0.37693016    -0.22700
C627        C  0.02186001  0.05996505  0.42351795    -0.05500
C628        C  0.02199823  0.07358993  0.44663238     0.00400
C629        C  0.03220111  0.09867705  0.44669514    -0.08200
C630        C  0.04279927  0.10844422  0.42402221    -0.05500
C631        C  0.04267953  0.09456960  0.40130217     0.00400
C632        C  0.03110024  0.07039802  0.40068673    -0.08100
C633        C  0.02694459  0.05649557  0.37568977     0.62300
H634        H  0.01375446  0.04107866  0.42319647     0.13000
H635        H  0.05112844  0.12725118  0.42372874     0.13000
C636        C  0.03116160  0.11565275  0.46997649     0.62500
F637        F  0.01342312  0.03418633  0.37898561    -0.22600
F638        F  0.04980812  0.05059180  0.36478874    -0.20000
F639        F  0.01340382  0.07179786  0.35913942    -0.19600
F640        F  0.04654331  0.10602678  0.48901060    -0.19700
F641        F  0.00664772  0.11712780  0.47860611    -0.20000
F642        F  0.03921689  0.14013451  0.46460079    -0.22700
C643        C  0.10882777  0.94724319  0.31364888    -0.05500
C644        C  0.11200995  0.93975910  0.33919634     0.00400
C645        C  0.13414298  0.94744852  0.35248228    -0.08200
C646        C  0.15111031  0.96425079  0.34038452    -0.05500
C647        C  0.14680645  0.97325108  0.31553116     0.00400
C648        C  0.12574959  0.96406345  0.30159898    -0.08100
C649        C  0.12048409  0.97305102  0.27453057     0.62300
H650        H  0.09202125  0.94109529  0.30363747     0.13000
H651        H  0.16714328  0.97172431  0.35083391     0.13000
C652        C  0.13986907  0.93829648  0.37936903     0.62500
F653        F  0.09863897  0.96240868  0.26470045    -0.22600
F654        F  0.14015313  0.96623639  0.25889577    -0.20000
F655        F  0.11783711  0.99916415  0.27396378    -0.19600
F656        F  0.13564577  0.91242085  0.38122810    -0.19700
F657        F  0.12476841  0.95072376  0.39658877    -0.20000
F658        F  0.16474285  0.94289089  0.38604308    -0.22700
C659        C  0.01974206  0.85876089  0.29939645    -0.05500
C660        C  0.00960724  0.83927434  0.31453299     0.00400
C661        C  0.01763318  0.83704678  0.34028062    -0.08200
C662        C  0.03370510  0.85575533  0.35054015    -0.05500
C663        C  0.04275259  0.87617191  0.33586541     0.00400
C664        C  0.03634688  0.87724152  0.30948818    -0.08100
C665        C  0.04573498  0.89841908  0.29222217     0.62300
H666        H  0.01327122  0.86022891  0.27983564     0.13000
H667        H  0.03895697  0.85458657  0.37051590     0.13000
C668        C  0.00947960  0.81569634  0.35793135     0.62500
F669        F  0.03488899  0.89729362  0.26818239    -0.22600
F670        F  0.07151115  0.89641825  0.28937548    -0.20000
F671        F  0.03994487  0.92177708  0.30256364    -0.19600
F672        F  0.03064086  0.80413126  0.36812565    -0.19700
F673        F  0.99538542  0.79721988  0.34573333    -0.20000
F674        F  0.99541470  0.82560167  0.37760419    -0.22700
C675        C  0.03348415  0.97446579  0.43103744    -0.05500
C676        C  0.02240544  0.95883421  0.44957778     0.00400
C677        C  0.02430891  0.93207553  0.44696500    -0.08200
C678        C  0.03658675  0.92203081  0.42534764    -0.05500
C679        C  0.04788984  0.93774342  0.40683950     0.00400
C680        C  0.04661092  0.96456383  0.41001144    -0.08100
C681        C  0.05842334  0.98300789  0.39114406     0.62300
H682        H  0.03205425  0.99481965  0.43346758     0.13000
H683        H  0.03778033  0.90166394  0.42290696     0.13000
C684        C  0.01322772  0.91418618  0.46671103     0.62500
F685        F  0.05258224  0.00788733  0.39668602    -0.22600
F686        F  0.04986869  0.97792131  0.36672926    -0.20000
F687        F  0.08433452  0.98108969  0.39207971    -0.19600
F688        F  0.98817235  0.91997169  0.47073047    -0.19700
F689        F  0.02646618  0.91655251  0.48933373    -0.20000
F690        F  0.01455266  0.88907127  0.45915916    -0.22700
C691        C  0.81950818  0.94478957  0.31686195    -0.05500
C692        C  0.81749400  0.93928279  0.34299535     0.00400
C693        C  0.79674758  0.94909032  0.35677931    -0.08200
C694        C  0.77954627  0.96513549  0.34406259    -0.05500
C695        C  0.78274503  0.97199827  0.31843491     0.00400
C696        C  0.80278496  0.96141306  0.30441451    -0.08100
C697        C  0.80751068  0.96907321  0.27688921     0.62300
H698        H  0.83550347  0.93750825  0.30661512     0.13000
H699        H  0.76451251  0.97407857  0.35457646     0.13000
C700        C  0.79309933  0.94363438  0.38494861     0.62500
F701        F  0.82758754  0.95604598  0.26655283    -0.22600
F702        F  0.81288354  0.99476086  0.27547347    -0.20000
F703        F  0.78639851  0.96390890  0.26225714    -0.19600
F704        F  0.81036290  0.95744809  0.39909726    -0.19700
F705        F  0.79623470  0.91800660  0.38983846    -0.20000
F706        F  0.76919917  0.95029168  0.39288981    -0.22700
C707        C  0.90825363  0.85963910  0.30125559    -0.05500
C708        C  0.91775461  0.83932923  0.31566283     0.00400
C709        C  0.90915175  0.83534689  0.34081689    -0.08200
C710        C  0.89247430  0.85303739  0.35141262    -0.05500
C711        C  0.88419353  0.87437416  0.33762221     0.00400
C712        C  0.89155733  0.87740487  0.31178255    -0.08100
C713        C  0.88299449  0.89983862  0.29569041     0.62300
H714        H  0.91521950  0.86222914  0.28205554     0.13000
H715        H  0.88646089  0.85085618  0.37099245     0.13000
C716        C  0.91789177  0.81266803  0.35641352     0.62500
F717        F  0.89498559  0.90068179  0.27233823    -0.22600
F718        F  0.88822167  0.92236897  0.30814804    -0.20000
F719        F  0.85739835  0.89787132  0.29115472    -0.19600
F720        F  0.94360704  0.81385614  0.36037036    -0.19700
F721        F  0.91205312  0.79055428  0.34351546    -0.20000
F722        F  0.90641184  0.81169220  0.38001634    -0.22700
C723        C  0.87987270  0.96000689  0.41332494    -0.05500
C724        C  0.88257244  0.93366137  0.41004902     0.00400
C725        C  0.89711286  0.91972834  0.42822157    -0.08200
C726        C  0.90883234  0.93297908  0.44848003    -0.05500
C727        C  0.90672707  0.95939416  0.45097518     0.00400
C728        C  0.89163362  0.97313308  0.43340261    -0.08100
C729        C  0.88775526  0.00160618  0.43579503     0.62300
H730        H  0.86893941  0.97060515  0.39946098     0.13000
H731        H  0.92035334  0.92287816  0.46225165     0.13000
C732        C  0.90008012  0.89107912  0.42677945     0.62500
F733        F  0.86885319  0.01026474  0.41970801    -0.22600
F734        F  0.90974055  0.01424247  0.42955753    -0.20000
F735        F  0.88102811  0.00758250  0.46046827    -0.19600
F736        F  0.91490746  0.88479400  0.40619804    -0.19700
F737        F  0.87668832  0.87965344  0.42433523    -0.20000
F738        F  0.91150186  0.88128845  0.44846803    -0.22700
C739        C  0.89693115  0.18288795  0.36029044    -0.05500
C740        C  0.88143194  0.16876248  0.34365948     0.00400
C741        C  0.88012812  0.17637161  0.31751923    -0.08200
C742        C  0.89768838  0.19441059  0.30859951    -0.05500
C743        C  0.91505016  0.20624800  0.32495031     0.00400
C744        C  0.91325619  0.20192119  0.35149879    -0.08100
C745        C  0.92940463  0.21564646  0.37106490     0.62300
H746        H  0.89705443  0.17847987  0.38048778     0.13000
H747        H  0.89925581  0.19801677  0.28833936     0.13000
C748        C  0.86144285  0.16523980  0.29852459     0.62500
F749        F  0.91445359  0.22368954  0.39094195    -0.22600
F750        F  0.94130103  0.23682368  0.36102464    -0.20000
F751        F  0.94740096  0.19916785  0.38059989    -0.19600
F752        F  0.83719049  0.16767602  0.30766067    -0.19700
F753        F  0.86680083  0.13999675  0.29432514    -0.20000
F754        F  0.86232275  0.17762267  0.27519931    -0.22700
C755        C  0.81063028  0.06670786  0.30240736    -0.05500
C756        C  0.78679452  0.06379156  0.31336296     0.00400
C757        C  0.78062689  0.07761175  0.33547925    -0.08200
C758        C  0.79897072  0.09371194  0.34627503    -0.05500
C759        C  0.82331558  0.09546872  0.33614393     0.00400
C760        C  0.82942796  0.08162989  0.31387764    -0.08100
C761        C  0.85561532  0.07987675  0.30245110     0.62300
H762        H  0.81534871  0.05524635  0.28599004     0.13000
H763        H  0.79482361  0.10420710  0.36344596     0.13000
C764        C  0.75515836  0.07441992  0.34811645     0.62500
F765        F  0.86322451  0.05477755  0.30279690    -0.22600
F766        F  0.87364766  0.09385171  0.31530526    -0.20000
F767        F  0.85477839  0.08819520  0.27741873    -0.19600
F768        F  0.75141293  0.04930260  0.35498601    -0.19700
F769        F  0.73635245  0.08173231  0.33133920    -0.20000
F770        F  0.75321373  0.08903487  0.36986560    -0.22700
C771        C  0.88308701  0.07745454  0.44829483    -0.05500
C772        C  0.90953754  0.07659702  0.44842696     0.00400
C773        C  0.92299780  0.08866638  0.42843124    -0.08200
C774        C  0.90939468  0.10041466  0.40855437    -0.05500
C775        C  0.88295694  0.10027910  0.40779328     0.00400
C776        C  0.86946182  0.08894993  0.42818514    -0.08100
C777        C  0.84087090  0.08921188  0.42897579     0.62300
H778        H  0.87311047  0.06832938  0.46380398     0.13000
H779        H  0.91942259  0.10928269  0.39293388     0.13000
C780        C  0.95159311  0.08955476  0.42814380     0.62500
F781        F  0.83186509  0.08137541  0.45244486    -0.22600
F782        F  0.83124738  0.07298877  0.41067815    -0.20000
F783        F  0.83210553  0.11354159  0.42446293    -0.19600
F784        F  0.96093699  0.06552344  0.42383492    -0.19700
F785        F  0.96056704  0.09848225  0.45123504    -0.20000
F786        F  0.96064670  0.10542851  0.40915201    -0.22700
C787        C  0.03654272  0.18730227  0.71938096    -0.05500
C788        C  0.04331760  0.16590007  0.73404656     0.00400
C789        C  0.03476435  0.16414043  0.75966560    -0.08200
C790        C  0.01833851  0.18285506  0.76889003    -0.05500
C791        C  0.01028783  0.20309501  0.75358915     0.00400
C792        C  0.02037911  0.20617353  0.72891234    -0.08100
C793        C  0.01425671  0.22956747  0.71309668     0.62300
H794        H  0.04356264  0.18882545  0.70009538     0.13000
H795        H  0.01018454  0.18095754  0.78767746     0.13000
C796        C  0.04091732  0.14162794  0.77664126     0.62500
F797        F  0.02695983  0.22972807  0.69014688    -0.22600
F798        F  0.02125551  0.25102294  0.72654817    -0.20000
F799        F  0.98875340  0.23065151  0.70785643    -0.19600
F800        F  0.06664446  0.14004898  0.78043065    -0.19700
F801        F  0.03197861  0.11975571  0.76532927    -0.20000
F802        F  0.02985583  0.14346896  0.80037983    -0.22700
C803        C  0.13248705  0.09896534  0.72549674    -0.05500
C804        C  0.10747095  0.09778224  0.73407279     0.00400
C805        C  0.10123131  0.08090504  0.75424859    -0.08200
C806        C  0.12054195  0.06718627  0.76622992    -0.05500
C807        C  0.14509471  0.06697832  0.75665371     0.00400
C808        C  0.15134958  0.08306540  0.73590890    -0.08100
C809        C  0.17735688  0.08248389  0.72413030     0.62300
H810        H  0.13681668  0.11153538  0.70971238     0.13000
H811        H  0.11583101  0.05421154  0.78162396     0.13000
C812        C  0.07454573  0.07479558  0.76259991     0.62500
F813        F  0.18193101  0.05860520  0.71437830    -0.22600
F814        F  0.19540969  0.08804907  0.74235448    -0.20000
F815        F  0.17968463  0.09999980  0.70451544    -0.19600
F816        F  0.05652532  0.08325032  0.74556673    -0.19700
F817        F  0.07034520  0.08546445  0.78620331    -0.20000
F818        F  0.07153194  0.04873288  0.76463017    -0.22700
C819        C  0.04695936  0.08760300  0.62063281    -0.05500
C820        C  0.02187754  0.07925785  0.62344214     0.00400
C821        C  0.00887401  0.08536401  0.64631118    -0.08200
C822        C  0.02202935  0.09773073  0.66601839    -0.05500
C823        C  0.04726653  0.10500668  0.66357447     0.00400
C824        C  0.05982142  0.10068326  0.64028234    -0.08100
C825        C  0.08625280  0.11077088  0.63592332     0.62300
H826        H  0.05658389  0.08351569  0.60299514     0.13000
H827        H  0.01269722  0.10148069  0.68391143     0.13000
C828        C  0.98100317  0.07981702  0.65000045     0.62500
F829        F  0.09386611  0.10737050  0.61098864    -0.22600
F830        F  0.10313369  0.09836212  0.65173274    -0.20000
F831        F  0.08696021  0.13651271  0.64106934    -0.19600
F832        F  0.97733348  0.05414496  0.65432844    -0.19700
F833        F  0.96762707  0.08741246  0.62863614    -0.20000
F834        F  0.97129723  0.09282838  0.67058775    -0.22700
C835        C  0.89618398  0.18503635  0.71513230    -0.05500
C836        C  0.88647851  0.16591729  0.73099969     0.00400
C837        C  0.89192643  0.16663087  0.75757828    -0.08200
C838        C  0.90773282  0.18605989  0.76695049    -0.05500
C839        C  0.91867180  0.20420685  0.75075523     0.00400
C840        C  0.91203351  0.20429892  0.72452707    -0.08100
C841        C  0.92195191  0.22350885  0.70543353     0.62300
H842        H  0.89184277  0.18456590  0.69491443     0.13000
H843        H  0.91330462  0.18611547  0.78683848     0.13000
C844        C  0.88295238  0.14598911  0.77578277     0.62500
F845        F  0.93791791  0.21141238  0.68870653    -0.22600
F846        F  0.93478419  0.24337538  0.71680759    -0.20000
F847        F  0.90200324  0.23367296  0.69175869    -0.19600
F848        F  0.88967818  0.12237546  0.76664650    -0.19700
F849        F  0.85708621  0.14719420  0.77832228    -0.20000
F850        F  0.89348762  0.14856042  0.79983832    -0.22700
C851        C  0.82481936  0.09366579  0.75821208    -0.05500
C852        C  0.81944299  0.10160484  0.73324047     0.00400
C853        C  0.79581354  0.09567539  0.72210883    -0.08200
C854        C  0.77909048  0.07991600  0.73568345    -0.05500
C855        C  0.78554080  0.07009898  0.75971246     0.00400
C856        C  0.80832948  0.07767580  0.77163675    -0.08100
C857        C  0.81614374  0.06727810  0.79753869     0.62300
H858        H  0.84296555  0.09848979  0.76641458     0.13000
H859        H  0.76161428  0.07369619  0.72691849     0.13000
C860        C  0.78845504  0.10573510  0.69601319     0.62500
F861        F  0.83728200  0.07959576  0.80701131    -0.22600
F862        F  0.82161715  0.04172718  0.79556572    -0.20000
F863        F  0.79688276  0.07043278  0.81483055    -0.19600
F864        F  0.80307446  0.09452802  0.67752942    -0.19700
F865        F  0.79197796  0.13176804  0.69522744    -0.20000
F866        F  0.76341654  0.10071758  0.69039068    -0.22700
C867        C  0.88507111  0.11237084  0.64224841    -0.05500
C868        C  0.88267622  0.09931130  0.66539615     0.00400
C869        C  0.89229101  0.07435395  0.66762675    -0.08200
C870        C  0.90462332  0.06353661  0.64659661    -0.05500
C871        C  0.90702152  0.07640927  0.62312131     0.00400
C872        C  0.89658357  0.10130243  0.62080586    -0.08100
C873        C  0.89774554  0.11660767  0.59620996     0.62300
H874        H  0.87746472  0.13139536  0.64108341     0.13000
H875        H  0.91215800  0.04452632  0.64827923     0.13000
C876        C  0.88974602  0.05925815  0.69223026     0.62500
F877        F  0.88813466  0.14082981  0.59907674    -0.22600
F878        F  0.88361881  0.10472150  0.57748717    -0.20000
F879        F  0.92248899  0.11898590  0.58845067    -0.19600
F880        F  0.86463801  0.05374878  0.69652944    -0.19700
F881        F  0.89923594  0.07316383  0.71245423    -0.20000
F882        F  0.90269646  0.03651879  0.69132579    -0.22700
C883        C  0.89746763  0.86071422  0.72570743    -0.05500
C884        C  0.88772406  0.87937446  0.74196176     0.00400
C885        C  0.89258931  0.87733474  0.76861880    -0.08200
C886        C  0.90932560  0.85843264  0.77741268    -0.05500
C887        C  0.92096086  0.84152228  0.76068424     0.00400
C888        C  0.91390957  0.84169504  0.73460691    -0.08100
C889        C  0.92393286  0.82203558  0.71619582     0.62300
H890        H  0.89298233  0.86184559  0.70557472     0.13000
H891        H  0.91489374  0.85778445  0.79729009     0.13000
C892        C  0.88188083  0.89594185  0.78764193     0.62500
F893        F  0.91253308  0.82393857  0.69246279    -0.22600
F894        F  0.91922732  0.79796072  0.72570755    -0.20000
F895        F  0.94955896  0.82511653  0.71291562    -0.19600
F896        F  0.85585500  0.89473762  0.78725805    -0.19700
F897        F  0.88981737  0.92018111  0.78156541    -0.20000
F898        F  0.88975917  0.89077950  0.81231276    -0.22700
C899        C  0.80108254  0.94811357  0.73304849    -0.05500
C900        C  0.82587431  0.94957698  0.74240384     0.00400
C901        C  0.83123057  0.96545763  0.76351138    -0.08200
C902        C  0.81130377  0.97823923  0.77524292    -0.05500
C903        C  0.78699264  0.97866579  0.76460063     0.00400
C904        C  0.78161154  0.96303906  0.74326393    -0.08100
C905        C  0.75625815  0.96210617  0.72983140     0.62300
H906        H  0.79713194  0.93610072  0.71676258     0.13000
H907        H  0.81548358  0.99073098  0.79111238     0.13000
C908        C  0.85757207  0.97167749  0.77316737     0.62500
F909        F  0.75913596  0.97003550  0.70484952    -0.22600
F910        F  0.73831550  0.97720841  0.74109883    -0.20000
F911        F  0.74739862  0.93736821  0.72992046    -0.19600
F912        F  0.86068050  0.99778483  0.77374654    -0.19700
F913        F  0.87646072  0.96209228  0.75806886    -0.20000
F914        F  0.86043056  0.96225096  0.79763819    -0.22700
C915        C  0.87208208  0.95086482  0.65280370    -0.05500
C916        C  0.88775068  0.94343019  0.67315484     0.00400
C917        C  0.91414340  0.94737209  0.67116708    -0.08200
C918        C  0.92383457  0.95799494  0.64855672    -0.05500
C919        C  0.90829238  0.96489396  0.62785289     0.00400
C920        C  0.88183057  0.96149178  0.63010004    -0.08100
C921        C  0.86379906  0.96978750  0.60916607     0.62300
H922        H  0.85197243  0.94806129  0.65480942     0.13000
H923        H  0.94397656  0.96076965  0.64676229     0.13000
C924        C  0.93218126  0.94088592  0.69285109     0.62500
F925        F  0.83888067  0.96663866  0.61620649    -0.22600
F926        F  0.86769645  0.95545488  0.58757688    -0.20000
F927        F  0.86762313  0.99521344  0.60361426    -0.19600
F928        F  0.93443743  0.91481555  0.69496036    -0.19700
F929        F  0.92341482  0.95063212  0.71556648    -0.20000
F930        F  0.95599449  0.95090994  0.68881988    -0.22700
C931        C  0.13069088  0.96553961  0.77298158    -0.05500
C932        C  0.14967461  0.97518908  0.75714341     0.00400
C933        C  0.15197754  0.96564161  0.73213736    -0.08200
C934        C  0.13326662  0.94904819  0.72271062    -0.05500
C935        C  0.11281407  0.94118595  0.73775882     0.00400
C936        C  0.11225565  0.94839930  0.76385239    -0.08100
C937        C  0.09159711  0.93944112  0.78168412     0.62300
H938        H  0.12948128  0.97292160  0.79216248     0.13000
H939        H  0.13392457  0.94291050  0.70305247     0.13000
C940        C  0.17393280  0.97339131  0.71544163     0.62500
F941        F  0.09448305  0.94932490  0.80594180    -0.22600
F942        F  0.09223751  0.91328628  0.78384594    -0.20000
F943        F  0.06835801  0.94694810  0.77235716    -0.19600
F944        F  0.19626283  0.97006053  0.72874393    -0.19700
F945        F  0.17174988  0.99859808  0.70838781    -0.20000
F946        F  0.17498422  0.95890580  0.69352685    -0.22700
C947        C  0.01974278  0.83725660  0.73537338    -0.05500
C948        C  0.01296213  0.84114597  0.76087720     0.00400
C949        C  0.02400559  0.86152128  0.77453848    -0.08200
C950        C  0.04030011  0.87829838  0.76164636    -0.05500
C951        C  0.04554952  0.87562888  0.73560097     0.00400
C952        C  0.03599034  0.85412192  0.72242643    -0.08100
C953        C  0.04239962  0.84909948  0.69476237     0.62300
H954        H  0.01083330  0.82177396  0.72515307     0.13000
H955        H  0.04787863  0.89463572  0.77152881     0.13000
C956        C  0.01770262  0.86624986  0.80230383     0.62500
F957        F  0.03574984  0.82468444  0.68759987    -0.22600
F958        F  0.06804169  0.85189651  0.69105652    -0.20000
F959        F  0.02957060  0.86589801  0.67916295    -0.19600
F960        F  0.02489464  0.84559950  0.81689632    -0.19700
F961        F  0.99209764  0.87003088  0.80495804    -0.20000
F962        F  0.03008298  0.88742976  0.81175287    -0.22700
C963        C  0.04003960  0.92564455  0.64873862    -0.05500
C964        C  0.04964036  0.94117393  0.66826806     0.00400
C965        C  0.04629584  0.96791522  0.66634278    -0.08200
C966        C  0.03421965  0.97801319  0.64454744    -0.05500
C967        C  0.02489577  0.96248929  0.62492852     0.00400
C968        C  0.02749245  0.93576196  0.62721280    -0.08100
C969        C  0.01631207  0.91787382  0.60754306     0.62300
H970        H  0.04245790  0.90531698  0.65048213     0.13000
H971        H  0.03177849  0.99835183  0.64269456     0.13000
C972        C  0.05415021  0.98580486  0.68764260     0.62500
F973        F  0.01730791  0.89279072  0.61548115    -0.22600
F974        F  0.02962764  0.91997154  0.58509382    -0.20000
F975        F  0.99129075  0.92384887  0.60317496    -0.19600
F976        F  0.08012058  0.98690379  0.68941574    -0.19700
F977        F  0.04427108  0.97739491  0.71053310    -0.20000
F978        F  0.04552589  0.01026199  0.68347427    -0.22700
C979        C  0.24498218  0.09140858  0.17632719    -0.05500
C980        C  0.27014507  0.09818631  0.18094102     0.00400
C981        C  0.28201054  0.09013358  0.20381686    -0.08200
C982        C  0.26880477  0.07353932  0.22026481    -0.05500
C983        C  0.24407345  0.06549491  0.21475826     0.00400
C984        C  0.23166080  0.07524146  0.19286211    -0.08100
C985        C  0.20462455  0.06811318  0.18659625     0.62300
H986        H  0.23605956  0.09817227  0.15901054     0.13000
H987        H  0.27811930  0.06573581  0.23695042     0.13000
C988        C  0.30821789  0.09935923  0.21096450     0.62500
F989        F  0.19655610  0.07882887  0.16384754    -0.22600
F990        F  0.18900807  0.07648710  0.20573254    -0.20000
F991        F  0.20231145  0.04215124  0.18443580    -0.19600
F992        F  0.30920891  0.12557449  0.20924892    -0.19700
F993        F  0.32582392  0.08908500  0.19474070    -0.20000
F994        F  0.31462653  0.09251355  0.23565821    -0.22700
C995        C  0.28436882  0.18807462  0.10913203    -0.05500
C996        C  0.26886051  0.16870063  0.11878023     0.00400
C997        C  0.24233463  0.17036064  0.11487459    -0.08200
C998        C  0.23285291  0.19001726  0.09919443    -0.05500
C999        C  0.24879473  0.20804933  0.08782692     0.00400
C1000       C  0.27474389  0.20804254  0.09426901    -0.08100
C1001       C  0.29322621  0.22805334  0.08514518     0.62300
H1002       H  0.30448827  0.18732836  0.11276256     0.13000
H1003       H  0.21306922  0.19034721  0.09405630     0.13000
C1004       C  0.22413396  0.15081542  0.12568830     0.62500
F1005       F  0.30655929  0.23742890  0.10581904    -0.22600
F1006       F  0.28152795  0.24831342  0.07320486    -0.20000
F1007       F  0.30997728  0.21715255  0.06840256    -0.19600
F1008       F  0.22475409  0.15167760  0.15201629    -0.19700
F1009       F  0.23064873  0.12679556  0.11754006    -0.20000
F1010       F  0.19954598  0.15529289  0.11800547    -0.22700
C1011       C  0.35942793  0.08984183  0.07879531    -0.05500
C1012       C  0.37882392  0.08011120  0.09422122     0.00400
C1013       C  0.37713196  0.08257017  0.12106632    -0.08200
C1014       C  0.35605824  0.09491556  0.13146091    -0.05500
C1015       C  0.33664998  0.10477051  0.11605842     0.00400
C1016       C  0.33828369  0.10209927  0.08914246    -0.08100
C1017       C  0.31752380  0.11116419  0.07126342     0.62300
H1018       H  0.36103093  0.08772917  0.05834207     0.13000
H1019       H  0.35454786  0.09695556  0.15191076     0.13000
C1020       C  0.39691474  0.07137258  0.13878084     0.62500
F1021       F  0.32115418  0.10289570  0.04654360    -0.22600
F1022       F  0.31701688  0.13741097  0.07080942    -0.20000
F1023       F  0.29447042  0.10188524  0.07930099    -0.19600
F1024       F  0.41927045  0.08463854  0.13628996    -0.19700
F1025       F  0.40079676  0.04618689  0.13279932    -0.20000
F1026       F  0.38971186  0.07247370  0.16406393    -0.22700
C1027       C  0.24288561  0.94651815  0.17792883    -0.05500
C1028       C  0.26872557  0.94180022  0.18106712     0.00400
C1029       C  0.28130786  0.95072823  0.20315354    -0.08200
C1030       C  0.26802750  0.96625598  0.22015065    -0.05500
C1031       C  0.24286176  0.97304396  0.21557429     0.00400
C1032       C  0.22965516  0.96217523  0.19474646    -0.08100
C1033       C  0.20211562  0.96801928  0.18946958     0.62300
H1034       H  0.23340752  0.93896671  0.16125718     0.13000
H1035       H  0.27777219  0.97485302  0.23614996     0.13000
C1036       C  0.30867819  0.94447807  0.20853691     0.62500
F1037       F  0.19304543  0.95519088  0.16831538    -0.22600
F1038       F  0.19915110  0.99363784  0.18504467    -0.20000
F1039       F  0.18764780  0.96091586  0.21010345    -0.19600
F1040       F  0.32394980  0.95802689  0.19210034    -0.19700
F1041       F  0.31271933  0.91875275  0.20534208    -0.20000
F1042       F  0.31551584  0.95065333  0.23325361    -0.22700
C1043       C  0.26217496  0.83654443  0.09258886    -0.05500
C1044       C  0.23842231  0.84355330  0.08307446     0.00400
C1045       C  0.22641328  0.86541982  0.09274797    -0.08200
C1046       C  0.24004427  0.88134518  0.10928802    -0.05500
C1047       C  0.26492857  0.87578695  0.11640027     0.00400
C1048       C  0.27553167  0.85223428  0.10961305    -0.08100
C1049       C  0.30080759  0.84386322  0.12019959     0.62300
H1050       H  0.27088159  0.81948952  0.08533073     0.13000
H1051       H  0.23188345  0.89903644  0.11561415     0.13000
C1052       C  0.19969839  0.87227807  0.08503793     0.62500
F1053       F  0.30472621  0.81821149  0.11626454    -0.22600
F1054       F  0.30178037  0.84816481  0.14619280    -0.20000
F1055       F  0.31995949  0.85729114  0.10849234    -0.19600
F1056       F  0.18354907  0.85268104  0.09154036    -0.19700
F1057       F  0.19834923  0.87640772  0.05908288    -0.20000
F1058       F  0.19151599  0.89404188  0.09712438    -0.22700
C1059       C  0.35918438  0.95177078  0.07880462    -0.05500
C1060       C  0.37815180  0.96191955  0.09456032     0.00400
C1061       C  0.37565662  0.95961837  0.12137796    -0.08200
C1062       C  0.35417155  0.94741038  0.13138871    -0.05500
C1063       C  0.33518109  0.93723176  0.11568958     0.00400
C1064       C  0.33778743  0.93928350  0.08876529    -0.08100
C1065       C  0.31794967  0.92914059  0.07039438     0.62300
H1066       H  0.36138006  0.95368542  0.05837469     0.13000
H1067       H  0.35208644  0.94558240  0.15181391     0.13000
C1068       C  0.39508485  0.97067913  0.13949321     0.62500
F1069       F  0.32302751  0.93600656  0.04548956    -0.22600
F1070       F  0.29452422  0.93870649  0.07650702    -0.20000
F1071       F  0.31733952  0.90291252  0.07146300    -0.19600
F1072       F  0.39902002  0.99598040  0.13373626    -0.19700
F1073       F  0.41744127  0.95758470  0.13727719    -0.20000
F1074       F  0.38747408  0.96909270  0.16464670    -0.22700
C1075       C  0.28099414  0.95579481  0.87344237    -0.05500
C1076       C  0.26683561  0.94416783  0.89284468     0.00400
C1077       C  0.24055164  0.94937031  0.89441032    -0.08200
C1078       C  0.23000424  0.96745247  0.87768506    -0.05500
C1079       C  0.24458576  0.98003821  0.85944324     0.00400
C1080       C  0.27020926  0.97355233  0.85651435    -0.08100
C1081       C  0.28601087  0.98565746  0.83569970     0.62300
H1082       H  0.30085734  0.95141109  0.87212686     0.13000
H1083       H  0.21040573  0.97279591  0.87936437     0.13000
C1084       C  0.22370848  0.93689291  0.91414914     0.62500
F1085       F  0.30977501  0.97504242  0.83450332    -0.22600
F1086       F  0.28882775  0.01137146  0.84010216    -0.20000
F1087       F  0.27426288  0.98218475  0.81236765    -0.19600
F1088       F  0.23347114  0.94081064  0.93831835    -0.19700
F1089       F  0.22194258  0.91117675  0.90921684    -0.20000
F1090       F  0.19952091  0.94662303  0.91367123    -0.22700
C1091       C  0.24271164  0.87809077  0.96056737    -0.05500
C1092       C  0.26842075  0.87451104  0.95565771     0.00400
C1093       C  0.28065875  0.85281955  0.96579430    -0.08200
C1094       C  0.26761602  0.83742926  0.98334865    -0.05500
C1095       C  0.24257660  0.84251044  0.98994031     0.00400
C1096       C  0.22939111  0.86223070  0.97735006    -0.08100
C1097       C  0.20164584  0.86706977  0.98225205     0.62300
H1098       H  0.23339711  0.89438290  0.95240291     0.13000
H1099       H  0.27730020  0.82202422  0.99297884     0.13000
C1100       C  0.30741424  0.84606788  0.95864003     0.62500
F1101       F  0.19268493  0.88749734  0.96823151    -0.22600
F1102       F  0.19787390  0.87215204  0.00771920    -0.20000
F1103       F  0.18767049  0.84594189  0.97548806    -0.19600
F1104       F  0.32419855  0.86052742  0.97269402    -0.19700
F1105       F  0.31127486  0.85044338  0.93292975    -0.20000
F1106       F  0.31224213  0.82065396  0.96339248    -0.22700
C1107       C  0.35981476  0.93620683  0.94484279    -0.05500
C1108       C  0.33584494  0.93829008  0.95546866     0.00400
C1109       C  0.33268263  0.95236305  0.97804878    -0.08200
C1110       C  0.35393307  0.96374475  0.98957842    -0.05500
C1111       C  0.37835087  0.96191570  0.97914771     0.00400
C1112       C  0.38123903  0.94773154  0.95610900    -0.08100
C1113       C  0.40637759  0.94505168  0.94271208     0.62300
H1114       H  0.36152143  0.92541635  0.92742552     0.13000
H1115       H  0.35143299  0.97419473  0.00708113     0.13000
C1116       C  0.30673887  0.95550330  0.98969033     0.62500
F1117       F  0.40417802  0.93193490  0.91999003    -0.22600
F1118       F  0.42305927  0.93178329  0.95804431    -0.20000
F1119       F  0.41597591  0.96886046  0.93712054    -0.19600
F1120       F  0.29797514  0.93221134  0.99819389    -0.19700
F1121       F  0.29013121  0.96501985  0.97165723    -0.20000
F1122       F  0.30711209  0.97209923  0.01006365    -0.22700
C1123       C  0.28489657  0.18798314  0.97295976    -0.05500
C1124       C  0.26890550  0.16989165  0.96162659     0.00400
C1125       C  0.24243655  0.17183432  0.96543701    -0.08200
C1126       C  0.23341880  0.19027612  0.98241496    -0.05500
C1127       C  0.24963823  0.20723941  0.99492506     0.00400
C1128       C  0.27566306  0.20706646  0.98901261    -0.08100
C1129       C  0.29451304  0.22619405  0.99941312     0.62300
H1130       H  0.30499140  0.18702099  0.96950236     0.13000
H1131       H  0.21362328  0.19070124  0.98724859     0.13000
C1132       C  0.22369129  0.15382470  0.95297381     0.62500
F1133       F  0.31165319  0.21383595  0.01498956    -0.22600
F1134       F  0.28337469  0.24546440  0.01309713    -0.20000
F1135       F  0.30734203  0.23727808  0.97934338    -0.19600
F1136       F  0.22969783  0.12900221  0.95909182    -0.19700
F1137       F  0.22409999  0.15716823  0.92682457    -0.20000
F1138       F  0.19927323  0.15812023  0.96095717    -0.22700
C1139       C  0.26367206  0.08138412  0.85466996    -0.05500
C1140       C  0.23947500  0.07235417  0.86065238     0.00400
C1141       C  0.22753604  0.08105927  0.88300420    -0.08200
C1142       C  0.24096401  0.09723853  0.89954746    -0.05500
C1143       C  0.26596448  0.10449094  0.89468468     0.00400
C1144       C  0.27718113  0.09748344  0.87132324    -0.08100
C1145       C  0.30306788  0.10722922  0.86386306     0.62300
H1146       H  0.27253031  0.07436808  0.83756057     0.13000
H1147       H  0.23252673  0.10305827  0.91728214     0.13000
C1148       C  0.20113630  0.07231899  0.88987466     0.62500
F1149       F  0.30961732  0.09956719  0.83959369    -0.22600
F1150       F  0.32117627  0.09826133  0.88059223    -0.20000
F1151       F  0.30313789  0.13349090  0.86428195    -0.19600
F1152       F  0.20052054  0.04621331  0.89276292    -0.19700
F1153       F  0.18452967  0.07931205  0.87074147    -0.20000
F1154       F  0.19299371  0.08302916  0.91240799    -0.22700
C1155       C  0.35287690  0.11761468  0.97042329    -0.05500
C1156       C  0.33357072  0.10264728  0.95962787     0.00400
C1157       C  0.33533232  0.07574348  0.96154173    -0.08200
C1158       C  0.35720233  0.06497638  0.97233072    -0.05500
C1159       C  0.37696532  0.07993029  0.98202831     0.00400
C1160       C  0.37443521  0.10670812  0.98191572    -0.08100
C1161       C  0.39399556  0.12365062  0.99454520     0.62300
H1162       H  0.35107558  0.13807773  0.96957481     0.13000
H1163       H  0.35905617  0.04451078  0.97330418     0.13000
C1164       C  0.31396639  0.05821454  0.95333515     0.62500
F1165       F  0.38581055  0.14849845  0.99633314    -0.22600
F1166       F  0.41588478  0.12350265  0.98043583    -0.20000
F1167       F  0.39909643  0.11501227  0.01898659    -0.19600
F1168       F  0.31277238  0.05713342  0.92704487    -0.19700
F1169       F  0.29130005  0.06692131  0.96274001    -0.20000
F1170       F  0.31731190  0.03372469  0.96245303    -0.22700
C1171       C  0.68905961  0.15849180  0.10559463    -0.05500
C1172       C  0.66521990  0.16373707  0.11566422     0.00400
C1173       C  0.65414292  0.18778534  0.11109568    -0.08200
C1174       C  0.66618769  0.20478688  0.09426170    -0.05500
C1175       C  0.68892851  0.19850834  0.08243057     0.00400
C1176       C  0.70113122  0.17549334  0.08887047    -0.08100
C1177       C  0.72628569  0.16852915  0.07723347     0.62300
H1178       H  0.69749137  0.14023904  0.10970854     0.13000
H1179       H  0.65726409  0.22255860  0.08910058     0.13000
C1180       C  0.62997705  0.19556287  0.12416609     0.62500
F1181       F  0.72381989  0.16620753  0.05110500    -0.22600
F1182       F  0.73534451  0.14575543  0.08678680    -0.20000
F1183       F  0.74384043  0.18724057  0.08261431    -0.19600
F1184       F  0.63262604  0.19239676  0.15022784    -0.19700
F1185       F  0.61007059  0.18089219  0.11557240    -0.20000
F1186       F  0.62421236  0.22077904  0.11946050    -0.22700
C1187       C  0.65477389  0.09440469  0.20383089    -0.05500
C1188       C  0.66603744  0.09523271  0.17972579     0.00400
C1189       C  0.68735528  0.08001835  0.17475601    -0.08200
C1190       C  0.69670494  0.06426397  0.19431358    -0.05500
C1191       C  0.68477594  0.06258858  0.21804910     0.00400
C1192       C  0.66365480  0.07799281  0.22310517    -0.08100
C1193       C  0.65006786  0.07622178  0.24838075     0.62300
H1194       H  0.63823224  0.10591283  0.20702383     0.13000
H1195       H  0.71244302  0.05177820  0.19071200     0.13000
C1196       C  0.69902519  0.07911808  0.14842946     0.62500
F1197       F  0.63035851  0.09329009  0.24973405    -0.22600
F1198       F  0.66673942  0.08142987  0.26802568    -0.20000
F1199       F  0.64035717  0.05202815  0.25164186    -0.19600
F1200       F  0.70873186  0.10269670  0.14217243    -0.19700
F1201       F  0.68092059  0.07231005  0.13062535    -0.20000
F1202       F  0.71838016  0.06162816  0.14720158    -0.22700
C1203       C  0.58917736  0.10817880  0.09408053    -0.05500
C1204       C  0.59468629  0.10229104  0.11974384     0.00400
C1205       C  0.57780541  0.08590343  0.13322709    -0.08200
C1206       C  0.55673497  0.07569135  0.12020862    -0.05500
C1207       C  0.55218122  0.08074275  0.09437994     0.00400
C1208       C  0.56843211  0.09747525  0.08108677    -0.08100
C1209       C  0.56400409  0.10381050  0.05315727     0.62300
H1210       H  0.60187227  0.12057719  0.08376860     0.13000
H1211       H  0.54403706  0.06276188  0.12988711     0.13000
C1212       C  0.58162760  0.07885294  0.16112385     0.62500
F1213       F  0.58019512  0.12261862  0.04455801    -0.22600
F1214       F  0.53958407  0.11222954  0.04958032    -0.20000
F1215       F  0.56785796  0.08241970  0.03858507    -0.19600
F1216       F  0.58535988  0.10053524  0.17547186    -0.19700
F1217       F  0.60215303  0.06292631  0.16368390    -0.20000
F1218       F  0.56093933  0.06620980  0.17101698    -0.22700
C1219       C  0.69725909  0.18640609  0.97797177    -0.05500
C1220       C  0.68239617  0.20457647  0.99009890     0.00400
C1221       C  0.65647702  0.20633681  0.98390263    -0.08200
C1222       C  0.64582963  0.18832603  0.96727127    -0.05500
C1223       C  0.66025919  0.16892075  0.95645354     0.00400
C1224       C  0.68675062  0.16850896  0.96103302    -0.08100
C1225       C  0.70381372  0.14859445  0.94945943     0.62300
H1226       H  0.71700499  0.18542121  0.98317992     0.13000
H1227       H  0.62586914  0.18892424  0.96298312     0.13000
C1228       C  0.64019943  0.22725884  0.99476464     0.62500
F1229       F  0.72838748  0.15068392  0.95823070    -0.22600
F1230       F  0.70427542  0.15151322  0.92327285    -0.20000
F1231       F  0.69517731  0.12455827  0.95569093    -0.19600
F1232       F  0.61570948  0.22599272  0.98561697    -0.19700
F1233       F  0.65020747  0.25057562  0.98793404    -0.20000
F1234       F  0.63930678  0.22554117  0.02101974    -0.22700
C1235       C  0.68225308  0.09814707  0.89321227    -0.05500
C1236       C  0.65742069  0.10564219  0.88801890     0.00400
C1237       C  0.64612468  0.09883845  0.86446903    -0.08200
C1238       C  0.65955179  0.08290406  0.84781350    -0.05500
C1239       C  0.68360592  0.07368206  0.85416687     0.00400
C1240       C  0.69546507  0.08194797  0.87691738    -0.08100
C1241       C  0.72129607  0.07229480  0.88487845     0.62300
H1242       H  0.69066548  0.10363896  0.91117309     0.13000
H1243       H  0.65066929  0.07605236  0.83051440     0.13000
C1244       C  0.62009516  0.10818597  0.85704056     0.62500
F1245       F  0.72938780  0.08295422  0.90758820    -0.22600
F1246       F  0.73874474  0.07836150  0.86637917    -0.20000
F1247       F  0.72056751  0.04623415  0.88814064    -0.19600
F1248       F  0.61918617  0.13433754  0.85919557    -0.19700
F1249       F  0.60219001  0.09740233  0.87278125    -0.20000
F1250       F  0.61402897  0.10193498  0.83213907    -0.22700
C1251       C  0.55059971  0.10566580  0.97572778    -0.05500
C1252       C  0.55132976  0.07906046  0.97785551     0.00400
C1253       C  0.57182788  0.06584998  0.96682599    -0.08200
C1254       C  0.59084189  0.07978338  0.95428440    -0.05500
C1255       C  0.59062730  0.10642765  0.95292872     0.00400
C1256       C  0.57005307  0.11968482  0.96378923    -0.08100
C1257       C  0.56831685  0.14843572  0.96259484     0.62300
H1258       H  0.53490492  0.11550501  0.98425281     0.13000
H1259       H  0.60668970  0.06986265  0.94614772     0.13000
C1260       C  0.57381578  0.03712666  0.96812890     0.62500
F1261       F  0.54519408  0.15704869  0.97094410    -0.22600
F1262       F  0.57147337  0.15671079  0.93775904    -0.20000
F1263       F  0.58670130  0.15911123  0.97796061    -0.19600
F1264       F  0.55110151  0.02621102  0.96125749    -0.19700
F1265       F  0.58013981  0.02972866  0.99264616    -0.20000
F1266       F  0.59202447  0.02796205  0.95181004    -0.22700
C1267       C  0.69279220  0.88852143  0.97321201    -0.05500
C1268       C  0.66820817  0.88415488  0.96425551     0.00400
C1269       C  0.65596684  0.86088720  0.96990754    -0.08200
C1270       C  0.66827568  0.84326172  0.98576692    -0.05500
C1271       C  0.69191182  0.84858634  0.99655706     0.00400
C1272       C  0.70469239  0.87133193  0.98995213    -0.08100
C1273       C  0.73003803  0.87806367  0.00177194     0.62300
H1274       H  0.70183423  0.90639760  0.96851807     0.13000
H1275       H  0.65859345  0.82606649  0.99162761     0.13000
C1276       C  0.62946527  0.85519612  0.96048795     0.62500
F1277       F  0.73885463  0.90136221  0.99325166    -0.22600
F1278       F  0.74758738  0.85986128  0.99550156    -0.20000
F1279       F  0.72799281  0.87920876  0.02800453    -0.19600
F1280       F  0.62703549  0.86182465  0.93505066    -0.19700
F1281       F  0.61230491  0.86875756  0.97466958    -0.20000
F1282       F  0.62369089  0.82963922  0.96279669    -0.22700
C1283       C  0.64902444  0.95992615  0.87871536    -0.05500
C1284       C  0.66546653  0.95058320  0.89759932     0.00400
C1285       C  0.69174279  0.95570682  0.89554084    -0.08200
C1286       C  0.70011690  0.97149528  0.87558528    -0.05500
C1287       C  0.68341731  0.98179192  0.85758216     0.00400
C1288       C  0.65762365  0.97493836  0.85837141    -0.08100
C1289       C  0.63838493  0.98394396  0.83886955     0.62300
H1290       H  0.62906798  0.95566035  0.87998837     0.13000
H1291       H  0.71969842  0.97726901  0.87471861     0.13000
C1292       C  0.71087192  0.94602000  0.91490064     0.62500
F1293       F  0.62339232  0.96371873  0.83138795    -0.22600
F1294       F  0.64946842  0.99392985  0.81722412    -0.20000
F1295       F  0.62329242  0.00225929  0.84970543    -0.19600
F1296       F  0.71222881  0.91984579  0.91365700    -0.19700
F1297       F  0.70399330  0.95328746  0.93917045    -0.20000
F1298       F  0.73479886  0.95553817  0.91038207    -0.22700
C1299       C  0.57760935  0.94991978  0.94559524    -0.05500
C1300       C  0.59805738  0.94440050  0.96177030     0.00400
C1301       C  0.59585348  0.94893015  0.98829993    -0.08200
C1302       C  0.57334013  0.95930269  0.99750359    -0.05500
C1303       C  0.55278010  0.96488255  0.98143620     0.00400
C1304       C  0.55471483  0.95963938  0.95498076    -0.08100
C1305       C  0.53298814  0.96423548  0.93662246     0.62300
H1306       H  0.57962159  0.94608289  0.92545442     0.13000
H1307       H  0.57151749  0.96299268  0.01769774     0.13000
C1308       C  0.61716430  0.94331372  0.00699600     0.62500
F1309       F  0.53978110  0.95983578  0.91159467    -0.22600
F1310       F  0.52489871  0.98907406  0.93827084    -0.20000
F1311       F  0.51331097  0.94801442  0.94248409    -0.19600
F1312       F  0.63950409  0.95371242  0.99828606    -0.19700
F1313       F  0.61982460  0.91734070  0.00981277    -0.20000
F1314       F  0.61259097  0.95337090  0.03085583    -0.22700
C1315       C  0.68141830  0.94611811  0.18725177    -0.05500
C1316       C  0.65607322  0.93921400  0.18988845     0.00400
C1317       C  0.64268454  0.94688528  0.21183888    -0.08200
C1318       C  0.65476741  0.96319013  0.22934196    -0.05500
C1319       C  0.67963997  0.97149121  0.22557029     0.00400
C1320       C  0.69357833  0.96207839  0.20474788    -0.08100
C1321       C  0.72081167  0.96990837  0.20016869     0.62300
H1322       H  0.69120661  0.94039674  0.17028829     0.13000
H1323       H  0.64440306  0.97087081  0.24524812     0.13000
C1324       C  0.61589890  0.93799335  0.21675481     0.62500
F1325       F  0.73020620  0.95957425  0.17797289    -0.22600
F1326       F  0.73571085  0.96152334  0.22013224    -0.20000
F1327       F  0.72279936  0.99602704  0.19817964    -0.19600
F1328       F  0.61466817  0.91181918  0.21494597    -0.19700
F1329       F  0.59955428  0.94868119  0.19919345    -0.20000
F1330       F  0.60786836  0.94472996  0.24084563    -0.22700
C1331       C  0.69761033  0.86264080  0.09691430    -0.05500
C1332       C  0.68415473  0.84147562  0.08814343     0.00400
C1333       C  0.65893374  0.83777994  0.09606134    -0.08200
C1334       C  0.64764977  0.85616399  0.11178366    -0.05500
C1335       C  0.66077412  0.87807554  0.11947243     0.00400
C1336       C  0.68626700  0.88132119  0.11204221    -0.08100
C1337       C  0.70104346  0.90515658  0.11855795     0.62300
H1338       H  0.71665090  0.86536577  0.09008060     0.13000
H1339       H  0.62818437  0.85400416  0.11749742     0.13000
C1340       C  0.64397677  0.81478105  0.08734975     0.62500
F1341       F  0.72413003  0.90598956  0.10644720    -0.22600
F1342       F  0.70550067  0.90577737  0.14446305    -0.20000
F1343       F  0.68762406  0.92645618  0.11114694    -0.19600
F1344       F  0.62043366  0.81373941  0.09853444    -0.19700
F1345       F  0.65685396  0.79291962  0.09393620    -0.20000
F1346       F  0.64066282  0.81551014  0.06120618    -0.22700
C1347       C  0.57143950  0.97972740  0.10506714    -0.05500
C1348       C  0.55132541  0.96460135  0.09642270     0.00400
C1349       C  0.55227828  0.93789458  0.10019739    -0.08200
C1350       C  0.57372544  0.92731636  0.11198044    -0.05500
C1351       C  0.59355600  0.94248226  0.12106001     0.00400
C1352       C  0.59239678  0.96927084  0.11779489    -0.08100
C1353       C  0.61303315  0.98693978  0.12748715     0.62300
H1354       H  0.57027817  0.00008915  0.10228433     0.13000
H1355       H  0.57490338  0.90697823  0.11488083     0.13000
C1356       C  0.53094663  0.92047752  0.09188362     0.62500
F1357       F  0.61001126  0.01151237  0.11846005    -0.22600
F1358       F  0.63636295  0.97850928  0.11963908    -0.20000
F1359       F  0.61246054  0.98776335  0.15380676    -0.19600
F1360       F  0.52497091  0.92490099  0.06656898    -0.19700
F1361       F  0.51006274  0.92480760  0.10684193    -0.20000
F1362       F  0.53728494  0.89510755  0.09443446    -0.22700
C1363       C  0.00562737  0.28422232  0.19180202    -0.05500
C1364       C  0.00403716  0.29591949  0.21560496     0.00400
C1365       C  0.01891667  0.31755016  0.22096923    -0.08200
C1366       C  0.03466112  0.32728412  0.20173040    -0.05500
C1367       C  0.03474054  0.31670506  0.17720709     0.00400
C1368       C  0.01958813  0.29506784  0.17194062    -0.08100
C1369       C  0.01563547  0.28385632  0.14559070     0.62300
H1370       H  0.99367793  0.26791522  0.18793508     0.13000
H1371       H  0.04608179  0.34400387  0.20528798     0.13000
C1372       C  0.01713799  0.33075659  0.24651198     0.62500
F1373       F  0.99018418  0.27967618  0.14137400    -0.22600
F1374       F  0.02803844  0.26088180  0.14421131    -0.20000
F1375       F  0.02393483  0.29957725  0.12625923    -0.19600
F1376       F  0.02198314  0.31358533  0.26592476    -0.19700
F1377       F  0.99319599  0.34050797  0.24954771    -0.20000
F1378       F  0.03426394  0.35053582  0.24857139    -0.22700
C1379       C  0.12790507  0.28324371  0.09599201    -0.05500
C1380       C  0.14471532  0.30033574  0.08456488     0.00400
C1381       C  0.14281345  0.32654921  0.08999268    -0.08200
C1382       C  0.12289621  0.33495550  0.10519074    -0.05500
C1383       C  0.10471735  0.31818162  0.11511344     0.00400
C1384       C  0.10749453  0.29163589  0.11078089    -0.08100
C1385       C  0.08782058  0.27235914  0.11906245     0.62300
H1386       H  0.12951362  0.26336635  0.09106900     0.13000
H1387       H  0.12085796  0.35516914  0.10836734     0.13000
C1388       C  0.15959546  0.34639087  0.07761173     0.62500
F1389       F  0.09344073  0.24805365  0.11095901    -0.22600
F1390       F  0.06482145  0.27886732  0.10857152    -0.20000
F1391       F  0.08621563  0.27166684  0.14532816    -0.19600
F1392       F  0.14750671  0.35620358  0.05634543    -0.19700
F1393       F  0.18249637  0.33634431  0.07041890    -0.20000
F1394       F  0.16444436  0.36599143  0.09444895    -0.22700
C1395       C  0.04173400  0.40908242  0.12945046    -0.05500
C1396       C  0.04180369  0.38629627  0.11576304     0.00400
C1397       C  0.03056983  0.38534079  0.09132223    -0.08200
C1398       C  0.02032065  0.40766487  0.08094472    -0.05500
C1399       C  0.02008181  0.43076399  0.09443262     0.00400
C1400       C  0.03097482  0.43147839  0.11931620    -0.08100
C1401       C  0.03068446  0.45525709  0.13558535     0.62300
H1402       H  0.05017614  0.40909936  0.14828936     0.13000
H1403       H  0.01212569  0.40706962  0.06201784     0.13000
C1404       C  0.02836768  0.36053331  0.07674181     0.62500
F1405       F  0.03999983  0.45078925  0.15988879    -0.22600
F1406       F  0.00624209  0.46389915  0.13792321    -0.20000
F1407       F  0.04551418  0.47388470  0.12454699    -0.19600
F1408       F  0.01619043  0.34258878  0.09160095    -0.19700
F1409       F  0.05203706  0.35173319  0.07058027    -0.20000
F1410       F  0.01474715  0.36334061  0.05433203    -0.22700
C1411       C  0.10343379  0.29520576  0.96909226    -0.05500
C1412       C  0.10810104  0.31963181  0.95945244     0.00400
C1413       C  0.13182040  0.33126167  0.96377861    -0.08200
C1414       C  0.14908200  0.31918575  0.98029247    -0.05500
C1415       C  0.14315785  0.29602465  0.99220770     0.00400
C1416       C  0.12051600  0.28324109  0.98572583    -0.08100
C1417       C  0.11331107  0.25821106  0.99820304     0.62300
H1418       H  0.08531825  0.28644406  0.96522175     0.13000
H1419       H  0.16651513  0.32864338  0.98549435     0.13000
C1420       C  0.13870393  0.35637686  0.95132547     0.62500
F1421       F  0.10725835  0.26226087  0.02344633    -0.22600
F1422       F  0.13316078  0.24136201  0.99696674    -0.20000
F1423       F  0.09274274  0.24711210  0.98625011    -0.19600
F1424       F  0.12568016  0.37590628  0.96265333    -0.19700
F1425       F  0.13271021  0.35572560  0.92564201    -0.20000
F1426       F  0.16421733  0.36148166  0.95359033    -0.22700
C1427       C  0.03116126  0.29356117  0.90201464    -0.05500
C1428       C  0.03846720  0.31886178  0.89779725     0.00400
C1429       C  0.03275435  0.33050522  0.87409848    -0.08200
C1430       C  0.01808318  0.31701542  0.85616867    -0.05500
C1431       C  0.00913747  0.29237380  0.86120924     0.00400
C1432       C  0.01659441  0.28003377  0.88413462    -0.08100
C1433       C  0.00902932  0.25308948  0.89121113     0.62300
H1434       H  0.03621761  0.28446886  0.91990642     0.13000
H1435       H  0.01200014  0.32628200  0.83873162     0.13000
C1436       C  0.04206922  0.35704902  0.86782730     0.62500
F1437       F  0.03044842  0.23923271  0.89686049    -0.22600
F1438       F  0.99623197  0.24062269  0.87195906    -0.20000
F1439       F  0.99387746  0.25358316  0.91254878    -0.19600
F1440       F  0.06788139  0.35834704  0.87142019    -0.19700
F1441       F  0.03050843  0.37447759  0.88342721    -0.20000
F1442       F  0.03685383  0.36370156  0.84281181    -0.22700
C1443       C  0.03600235  0.41664116  0.99651565    -0.05500
C1444       C  0.02099420  0.43225096  0.98099744     0.00400
C1445       C  0.01821770  0.42636101  0.95488564    -0.08200
C1446       C  0.03038814  0.40471554  0.94521048    -0.05500
C1447       C  0.04545464  0.38879992  0.96060667     0.00400
C1448       C  0.04863845  0.39518438  0.98688937    -0.08100
C1449       C  0.06476303  0.37957023  0.00515352     0.62300
H1450       H  0.03773975  0.42155833  0.01647339     0.13000
H1451       H  0.02817013  0.40009260  0.92527899     0.13000
C1452       C  0.00190569  0.44253880  0.93746949     0.62500
F1453       F  0.06299271  0.38803802  0.03001325    -0.22600
F1454       F  0.08977363  0.38140982  0.99826785    -0.20000
F1455       F  0.05717103  0.35441804  0.00482013    -0.19600
F1456       F  0.01225918  0.46657566  0.93541600    -0.19700
F1457       F  0.97786532  0.44429057  0.94732794    -0.20000
F1458       F  0.00001640  0.43243534  0.91322201    -0.22700
C1459       C  0.80150609  0.28650655  0.98330344    -0.05500
C1460       C  0.78196603  0.30249297  0.99097250     0.00400
C1461       C  0.78061268  0.32747201  0.98102105    -0.08200
C1462       C  0.80027532  0.33637285  0.96535728    -0.05500
C1463       C  0.82076693  0.32088138  0.95899137     0.00400
C1464       C  0.82101793  0.29517973  0.96738817    -0.08100
C1465       C  0.84238084  0.27727116  0.96088940     0.62300
H1466       H  0.80211754  0.26749526  0.99124624     0.13000
H1467       H  0.80008644  0.35575721  0.95836863     0.13000
C1468       C  0.75840438  0.34446041  0.98688285     0.62500
F1469       F  0.84027039  0.25426256  0.97359507    -0.22600
F1470       F  0.86526051  0.28803687  0.96765271    -0.20000
F1471       F  0.84204814  0.27234755  0.93504526    -0.19600
F1472       F  0.75713517  0.34904403  0.01274408    -0.19700
F1473       F  0.73640234  0.33264511  0.97901528    -0.20000
F1474       F  0.76015685  0.36762966  0.97441498    -0.22700
C1475       C  0.90854996  0.31717736  0.85224755    -0.05500
C1476       C  0.91768901  0.29291099  0.85816934     0.00400
C1477       C  0.90881855  0.28003897  0.88009272    -0.08200
C1478       C  0.89273075  0.29293997  0.89676536    -0.05500
C1479       C  0.88548810  0.31812892  0.89209029     0.00400
C1480       C  0.89226674  0.33001330  0.86883101    -0.08100
C1481       C  0.88277056  0.35624238  0.86171998     0.62300
H1482       H  0.91563885  0.32669794  0.83538998     0.13000
H1483       H  0.88698404  0.28397725  0.91441334     0.13000
C1484       C  0.91707756  0.25310919  0.88617897     0.62500
F1485       F  0.88666341  0.36153201  0.83616890    -0.22600
F1486       F  0.89525268  0.37441889  0.87596761    -0.20000
F1487       F  0.85717381  0.35778254  0.86624462    -0.19600
F1488       F  0.90571101  0.24381324  0.90800600    -0.19700
F1489       F  0.94285502  0.25228524  0.88984880    -0.20000
F1490       F  0.91057874  0.23736400  0.86616460    -0.22700
C1491       C  0.87120133  0.40908546  0.95862347    -0.05500
C1492       C  0.88608483  0.38763073  0.95417161     0.00400
C1493       C  0.91201702  0.38824454  0.96089324    -0.08200
C1494       C  0.92190383  0.41027132  0.97235467    -0.05500
C1495       C  0.90702396  0.43174966  0.97714502     0.00400
C1496       C  0.88122457  0.43138238  0.96963021    -0.08100
C1497       C  0.86406039  0.45401869  0.97353764     0.62300
H1498       H  0.85151302  0.40823113  0.95316399     0.13000
H1499       H  0.94161512  0.41087182  0.97775831     0.13000
C1500       C  0.92911562  0.36550244  0.95698806     0.62500
F1501       F  0.83940205  0.44872077  0.96659150    -0.22600
F1502       F  0.87217499  0.47419716  0.95871822    -0.20000
F1503       F  0.86420722  0.46090799  0.99893949    -0.19600
F1504       F  0.93217413  0.36109696  0.93125059    -0.19700
F1505       F  0.91871635  0.34422450  0.96842204    -0.20000
F1506       F  0.95281803  0.36931270  0.96750267    -0.22700
C1507       C  0.88765643  0.29990771  0.18358067    -0.05500
C1508       C  0.87825026  0.32405464  0.18926495     0.00400
C1509       C  0.88452970  0.33537769  0.21297456    -0.08200
C1510       C  0.90249107  0.32339813  0.22874183    -0.05500
C1511       C  0.91342853  0.30025094  0.22188725     0.00400
C1512       C  0.90525299  0.28776516  0.19945955    -0.08100
C1513       C  0.91632285  0.26248103  0.19143225     0.62300
H1514       H  0.88271647  0.29147982  0.16545029     0.13000
H1515       H  0.90872801  0.33264754  0.24610147     0.13000
C1516       C  0.87291591  0.35972338  0.22262163     0.62500
F1517       F  0.90426597  0.25277058  0.17010818    -0.22600
F1518       F  0.91385333  0.24497415  0.21097126    -0.20000
F1519       F  0.94153796  0.26544412  0.18568963    -0.19600
F1520       F  0.85354489  0.36837476  0.20721535    -0.19700
F1521       F  0.89126934  0.37834266  0.22426970    -0.20000
F1522       F  0.86318802  0.35551224  0.24669297    -0.24500
C1523       C  0.79683866  0.33677813  0.10980899    -0.05500
C1524       C  0.81752262  0.32246065  0.11825934     0.00400
C1525       C  0.81980846  0.29680377  0.11030682    -0.08200
C1526       C  0.80189433  0.28696267  0.09299802    -0.05500
C1527       C  0.78192263  0.30176733  0.08370948     0.00400
C1528       C  0.77864393  0.32668204  0.09309689    -0.08100
C1529       C  0.75689212  0.34365281  0.08527540     0.62300
H1530       H  0.79506002  0.35628601  0.11606664     0.13000
H1531       H  0.80410418  0.26801899  0.08539314     0.13000
C1532       C  0.84178307  0.28031818  0.11870901     0.62500
F1533       F  0.76582234  0.36300165  0.06985934    -0.22600
F1534       F  0.74625199  0.35414605  0.10678595    -0.20000
F1535       F  0.73806650  0.33073502  0.07235548    -0.19600
F1536       F  0.84055979  0.27605333  0.14467162    -0.19700
F1537       F  0.86430458  0.29223412  0.11285726    -0.20000
F1538       F  0.84151554  0.25690505  0.10679888    -0.22700
C1539       C  0.88341684  0.38950806  0.09638408    -0.05500
C1540       C  0.88095131  0.39061709  0.12303602     0.00400
C1541       C  0.89120876  0.41189112  0.13613926    -0.08200
C1542       C  0.90338405  0.43118696  0.12197912    -0.05500
C1543       C  0.90620437  0.42977885  0.09540671     0.00400
C1544       C  0.89595564  0.40852859  0.08229646    -0.08100
C1545       C  0.89759585  0.40600783  0.05348909     0.62300
H1546       H  0.87578991  0.37313634  0.08655540     0.13000
H1547       H  0.91136329  0.44745386  0.13171492     0.13000
C1548       C  0.88929298  0.41455114  0.16484412     0.62500
F1549       F  0.88324294  0.38591064  0.04448924    -0.22600
F1550       F  0.92228160  0.40180197  0.04646094    -0.20000
F1551       F  0.88887449  0.42792512  0.04187061    -0.19600
F1552       F  0.90443334  0.39665081  0.17658065    -0.19700
F1553       F  0.86458954  0.41119017  0.17241394    -0.20000
F1554       F  0.89712853  0.43827805  0.17303450    -0.22700
C1555       C  0.02780051  0.70865585  0.19194875    -0.05500
C1556       C  0.03637233  0.72452984  0.17220510     0.00400
C1557       C  0.03101999  0.75099769  0.17334475    -0.08200
C1558       C  0.01592291  0.76007453  0.19332698    -0.05500
C1559       C  0.00615291  0.74377783  0.21200272     0.00400
C1560       C  0.01317530  0.71788927  0.21206520    -0.08100
C1561       C  0.00489699  0.69909937  0.23236435     0.62300
H1562       H  0.03224782  0.68858075  0.19148748     0.13000
H1563       H  0.01006987  0.77975268  0.19356524     0.13000
C1564       C  0.03944638  0.76941704  0.15278453     0.62500
F1565       F  0.02568586  0.68603110  0.24140577    -0.22600
F1566       F  0.98807889  0.68195662  0.22179621    -0.20000
F1567       F  0.99362510  0.71066343  0.25294678    -0.19600
F1568       F  0.03085081  0.76109607  0.12936145    -0.19700
F1569       F  0.06543251  0.77113389  0.15281182    -0.20000
F1570       F  0.03009195  0.79362065  0.15648940    -0.22700
C1571       C  0.12073988  0.75593966  0.07879824    -0.05500
C1572       C  0.14337634  0.74246205  0.07782587     0.00400
C1573       C  0.14601260  0.71959398  0.09173784    -0.08200
C1574       C  0.12547790  0.71082052  0.10622230    -0.05500
C1575       C  0.10219791  0.72341555  0.10568516     0.00400
C1576       C  0.09949207  0.74593779  0.09102444    -0.08100
C1577       C  0.07438019  0.75859553  0.08547696     0.62300
H1578       H  0.11888568  0.77303515  0.06733493     0.13000
H1579       H  0.12703828  0.69336760  0.11711382     0.13000
C1580       C  0.17010136  0.70428878  0.09046720     0.62500
F1581       F  0.07166269  0.77930564  0.10124224    -0.22600
F1582       F  0.05425352  0.74219846  0.08866168    -0.20000
F1583       F  0.07351773  0.76698916  0.06042829    -0.19600
F1584       F  0.19023289  0.71921856  0.09808881    -0.19700
F1585       F  0.17404544  0.69620130  0.06577956    -0.20000
F1586       F  0.16919256  0.68307537  0.10611987    -0.22700
C1587       C  0.03925976  0.63246218  0.12663623    -0.05500
C1588       C  0.04113022  0.65394457  0.11081563     0.00400
C1589       C  0.03267575  0.65250788  0.08521431    -0.08200
C1590       C  0.02297143  0.62935262  0.07625306    -0.05500
C1591       C  0.02070609  0.60776316  0.09201308     0.00400
C1592       C  0.02919957  0.60923869  0.11769298    -0.08100
C1593       C  0.02699520  0.58685469  0.13582531     0.62300
H1594       H  0.04579961  0.63408199  0.14615066     0.13000
H1595       H  0.01662344  0.62805965  0.05664636     0.13000
C1596       C  0.03257847  0.67563244  0.06771083     0.62500
F1597       F  0.03455810  0.59306749  0.16031347    -0.22600
F1598       F  0.04209215  0.56725125  0.12755816    -0.20000
F1599       F  0.00220790  0.57876874  0.13685065    -0.19600
F1600       F  0.05697247  0.68315228  0.06245807    -0.19700
F1601       F  0.01993672  0.69534867  0.07929200    -0.20000
F1602       F  0.02065426  0.67069991  0.04470320    -0.22700
C1603       C  0.90573803  0.71783667  0.22279669    -0.05500
C1604       C  0.91456591  0.74191627  0.21530303     0.00400
C1605       C  0.90488814  0.75325370  0.19279586    -0.08200
C1606       C  0.88819750  0.73919714  0.17737964    -0.05500
C1607       C  0.88104293  0.71429666  0.18375618     0.00400
C1608       C  0.88864883  0.70393348  0.20751209    -0.08100
C1609       C  0.87811591  0.67878036  0.21691106     0.62300
H1610       H  0.91323798  0.70954300  0.24016041     0.13000
H1611       H  0.88168096  0.74706419  0.15941774     0.13000
C1612       C  0.91310662  0.77966780  0.18455486     0.62500
F1613       F  0.88635684  0.67312232  0.24135407    -0.22600
F1614       F  0.88542302  0.65928343  0.20109506    -0.20000
F1615       F  0.85208851  0.67999598  0.21721323    -0.19600
F1616       F  0.90821557  0.79678616  0.20376877    -0.19700
F1617       F  0.90040645  0.78770013  0.16287421    -0.20000
F1618       F  0.93861650  0.77988022  0.17941130    -0.22700
C1619       C  0.81857030  0.73784211  0.11382909    -0.05500
C1620       C  0.81421657  0.71213399  0.11946850     0.00400
C1621       C  0.79183117  0.70029241  0.11057914    -0.08200
C1622       C  0.77508336  0.71449390  0.09518501    -0.05500
C1623       C  0.78046914  0.73969136  0.08802448     0.00400
C1624       C  0.80251017  0.75164602  0.09759773    -0.08100
C1625       C  0.81016054  0.77818353  0.08902679     0.62300
H1626       H  0.83580656  0.74654702  0.12073796     0.13000
H1627       H  0.75859866  0.70542750  0.08697824     0.13000
C1628       C  0.78587463  0.67276496  0.11689730     0.62500
F1629       F  0.83204735  0.78634322  0.10095946    -0.22600
F1630       F  0.79132250  0.79522671  0.09468497    -0.20000
F1631       F  0.81433886  0.77844375  0.06304493    -0.19600
F1632       F  0.78827384  0.66872959  0.14286461    -0.19700
F1633       F  0.80222268  0.65694429  0.10417177    -0.20000
F1634       F  0.76154484  0.66625900  0.10979598    -0.22700
C1635       C  0.86639724  0.62279298  0.11758806    -0.05500
C1636       C  0.87921148  0.64599504  0.12001330     0.00400
C1637       C  0.90316579  0.64890577  0.10863749    -0.08200
C1638       C  0.91421563  0.62789285  0.09664780    -0.05500
C1639       C  0.90195513  0.60419496  0.09486206     0.00400
C1640       C  0.87716490  0.60178044  0.10504056    -0.08100
C1641       C  0.86159697  0.57765503  0.10219997     0.62300
H1642       H  0.84778108  0.62126565  0.12580249     0.13000
H1643       H  0.93286923  0.62991093  0.08865722     0.13000
C1644       C  0.91665085  0.67440081  0.10823443     0.62500
F1645       F  0.83694677  0.58104340  0.10993961    -0.22600
F1646       F  0.87186123  0.55847569  0.11698515    -0.20000
F1647       F  0.86097684  0.57033320  0.07691604    -0.19600
F1648       F  0.92385354  0.68105146  0.13265920    -0.19700
F1649       F  0.90077343  0.69279537  0.09835409    -0.20000
F1650       F  0.93804765  0.67388173  0.09328429    -0.22700
C1651       C  0.89523696  0.71021547  0.87947352    -0.05500
C1652       C  0.89232347  0.72439050  0.90186100     0.00400
C1653       C  0.90348899  0.74892017  0.90340373    -0.08200
C1654       C  0.91746760  0.75809453  0.88258560    -0.05500
C1655       C  0.92147222  0.74333495  0.86086822     0.00400
C1656       C  0.90946465  0.71937331  0.85879861    -0.08100
C1657       C  0.91184444  0.70247229  0.83565601     0.62300
H1658       H  0.88663952  0.69153874  0.87827876     0.13000
H1659       H  0.92731631  0.77610185  0.88394406     0.13000
C1660       C  0.90285575  0.76440966  0.92767756     0.62500
F1661       F  0.88812071  0.69462139  0.82788025    -0.22600
F1662       F  0.92595826  0.68135195  0.84204282    -0.20000
F1663       F  0.92308290  0.71468724  0.81527902    -0.19600
F1664       F  0.91293567  0.75026535  0.94748385    -0.19700
F1665       F  0.87836407  0.77106251  0.93316451    -0.20000
F1666       F  0.91678830  0.78661123  0.92567528    -0.22700
C1667       C  0.80224225  0.71695265  0.96650890    -0.05500
C1668       C  0.82681616  0.72684424  0.96823273     0.00400
C1669       C  0.83166586  0.74786704  0.98440312    -0.08200
C1670       C  0.81146187  0.75887929  0.99735418    -0.05500
C1671       C  0.78741576  0.74785450  0.99717048     0.00400
C1672       C  0.78249650  0.72672986  0.98135533    -0.08100
C1673       C  0.75677971  0.71410396  0.98109691     0.62300
H1674       H  0.79895382  0.70064418  0.95441214     0.13000
H1675       H  0.81513969  0.77458073  0.01018267     0.13000
C1676       C  0.85770568  0.75811181  0.99085881     0.62500
F1677       F  0.75559736  0.69429729  0.96387286    -0.22600
F1678       F  0.73865401  0.73170596  0.97435027    -0.20000
F1679       F  0.75137936  0.70450153  0.00503026    -0.19600
F1680       F  0.87696672  0.74378906  0.98101240    -0.19700
F1681       F  0.86083463  0.75834650  0.01706321    -0.20000
F1682       F  0.85987521  0.78271123  0.98180296    -0.22700
C1683       C  0.88883445  0.63369320  0.94776518    -0.05500
C1684       C  0.88396135  0.65411686  0.96416801     0.00400
C1685       C  0.88863455  0.65115630  0.99070960    -0.08200
C1686       C  0.89869666  0.62811115  0.99961225    -0.05500
C1687       C  0.90372810  0.60770091  0.98329865     0.00400
C1688       C  0.89817775  0.61023933  0.95693233    -0.08100
C1689       C  0.90228712  0.58853501  0.93852719     0.62300
H1690       H  0.88491291  0.63619713  0.92763796     0.13000
H1691       H  0.90272464  0.62576320  0.01974592     0.13000
C1692       C  0.88361775  0.67221989  0.00976097     0.62500
F1693       F  0.89738043  0.59564886  0.91356524    -0.22600
F1694       F  0.88628544  0.56865477  0.94459362    -0.20000
F1695       F  0.92697969  0.58036035  0.93997041    -0.19600
F1696       F  0.85795242  0.67582698  0.01203673    -0.19700
F1697       F  0.89493966  0.69455685  0.00179673    -0.20000
F1698       F  0.89301942  0.66645986  0.03377378    -0.22700
C1699       C  0.11129055  0.73827129  0.96211749    -0.05500
C1700       C  0.11540375  0.71287723  0.95528652     0.00400
C1701       C  0.13845520  0.70118055  0.96256987    -0.08200
C1702       C  0.15514749  0.71454508  0.97862360    -0.05500
C1703       C  0.15001265  0.73927778  0.98681235     0.00400
C1704       C  0.12822187  0.75180694  0.97762816    -0.08100
C1705       C  0.12212146  0.77891848  0.98524455     0.62300
H1706       H  0.09370269  0.74700719  0.95662825     0.13000
H1707       H  0.17183572  0.70509183  0.98591019     0.13000
C1708       C  0.14657829  0.67495543  0.95435734     0.62500
F1709       F  0.09958820  0.78709513  0.97467405    -0.22600
F1710       F  0.14093363  0.79505580  0.97684790    -0.20000
F1711       F  0.12019508  0.78073389  0.01143101    -0.19600
F1712       F  0.13069912  0.66446294  0.93632292    -0.19700
F1713       F  0.14756868  0.65913354  0.97544177    -0.20000
F1714       F  0.17041713  0.67642245  0.94389133    -0.22700
C1715       C  0.03809546  0.70328854  0.87178720    -0.05500
C1716       C  0.04560701  0.71661692  0.89368548     0.00400
C1717       C  0.03778348  0.74221222  0.89670700    -0.08200
C1718       C  0.02124759  0.75288785  0.87851159    -0.05500
C1719       C  0.01254191  0.73897551  0.85751023     0.00400
C1720       C  0.02180537  0.71418086  0.85347351    -0.08100
C1721       C  0.01380403  0.69915490  0.83022353     0.62300
H1722       H  0.04441714  0.68389643  0.86957539     0.13000
H1723       H  0.01381788  0.77180116  0.88124210     0.13000
C1724       C  0.04591894  0.75791664  0.91951505     0.62500
F1725       F  0.98850785  0.69306868  0.83177348    -0.22600
F1726       F  0.02731038  0.67684567  0.82805180    -0.20000
F1727       F  0.01786895  0.71351997  0.80848869    -0.19600
F1728       F  0.07155103  0.76228834  0.91833526    -0.19700
F1729       F  0.04017939  0.74521854  0.94189430    -0.20000
F1730       F  0.03406682  0.78128052  0.92003268    -0.22700
C1731       C  0.02118663  0.64964950  0.96108280    -0.05500
C1732       C  0.04741841  0.64781272  0.95781662     0.00400
C1733       C  0.05971616  0.62530453  0.96616807    -0.08200
C1734       C  0.04532597  0.60560662  0.97735279    -0.05500
C1735       C  0.01923527  0.60771040  0.98108405     0.00400
C1736       C  0.00684531  0.63015089  0.97265395    -0.08100
C1737       C  0.97848917  0.63334260  0.97501876     0.62300
H1738       H  0.01192406  0.66685213  0.95473456     0.13000
H1739       H  0.05454952  0.58845971  0.98392552     0.13000
C1740       C  0.08786050  0.62180934  0.96323468     0.62500
F1741       F  0.96995332  0.65466813  0.96214518    -0.22600
F1742       F  0.97200117  0.63590354  0.00035092    -0.20000
F1743       F  0.96628497  0.61244159  0.96482418    -0.19600
F1744       F  0.10039871  0.63820394  0.97944809    -0.19700
F1745       F  0.09476306  0.62667142  0.93831780    -0.20000
F1746       F  0.09532911  0.59733100  0.96923387    -0.22700
loop_ 
_geom_bond_atom_site_label_1 
_geom_bond_atom_site_label_2 
_geom_bond_distance 
_geom_bond_site_symmetry_2 
_ccdc_geom_bond_type 
C1            N2   1.364       .  A
C1            N6   1.365       .  A
C1         C1732   1.503       .  S
N2            C3   1.361       .  A
C3            N4   1.356       .  A
C3         C1716   1.489       .  S
N4            C5   1.360       .  A
C5            N6   1.365       .  A
C5         C1700   1.487       .  S
C7            N8   1.363       .  A
C7           N12   1.357       .  A
C7         C1684   1.489       .  S
N8            C9   1.364       .  A
C9           N10   1.361       .  A
C9         C1652   1.488       .  S
N10          C11   1.359       .  A
C11          N12   1.356       .  A
C11        C1668   1.476       .  S
C13          N14   1.360       .  A
C13          N18   1.361       .  A
C13        C1636   1.486       .  S
N14          C15   1.361       .  A
C15          N16   1.359       .  A
C15        C1620   1.483       .  S
N16          C17   1.357       .  A
C17          N18   1.361       .  A
C17        C1607   1.483       .  S
C19          N20   1.355       .  A
C19          N24   1.360       .  A
C19        C1588   1.481       .  S
N20          C21   1.355       .  A
C21          N22   1.360       .  A
C21        C1575   1.473       .  S
N22          C23   1.361       .  A
C23          N24   1.365       .  A
C23        C1556   1.493       .  S
C25          N26   1.362       .  A
C25          N30   1.361       .  A
C25        C1540   1.498       .  S
N26          C27   1.360       .  A
C27          N28   1.357       .  A
C27        C1524   1.485       .  S
N28          C29   1.360       .  A
C29          N30   1.362       .  A
C29        C1508   1.479       .  S
C31          N32   1.362       .  A
C31          N36   1.356       .  A
C31        C1492   1.487       .  S
N32          C33   1.363       .  A
C33          N34   1.359       .  A
C33        C1463   1.487       .  S
N34          C35   1.359       .  A
C35          N36   1.357       .  A
C35        C1479   1.478       .  S
C37          N38   1.365       .  A
C37          N42   1.359       .  A
C37        C1447   1.505       .  S
N38          C39   1.363       .  A
C39          N40   1.356       .  A
C39        C1428   1.484       .  S
N40          C41   1.357       .  A
C41          N42   1.360       .  A
C41        C1412   1.477       .  S
C43          N44   1.357       .  A
C43          N48   1.356       .  A
C43        C1396   1.477       .  S
N44          C45   1.361       .  A
C45          N46   1.360       .  A
C45        C1383   1.494       .  S
N46          C47   1.361       .  A
C47          N48   1.358       .  A
C47        C1367   1.472       .  S
O49         Zr61   2.474       .  S
O49          C51   1.293       .  A
O50         Zr87   2.399       .  S
O50          C51   1.283   1_655  A
C51        C1591   1.494       .  S
O52         Zr64   2.470   1_455  S
O52          C54   1.293       .  A
O53         Zr88   2.424       .  S
O53          C54   1.286   1_654  A
C54        C1444   1.487       .  S
O55         Zr64   2.466   1_455  S
O55          C57   1.293       .  A
O56         Zr87   2.429       .  S
O56          C57   1.286   1_654  A
C57        C1735   1.497       .  S
O58         Zr61   2.463       .  S
O58          C60   1.290       .  A
O59         Zr88   2.412       .  S
O59          C60   1.286   1_655  A
C60        C1399   1.498       .  S
Zr61         O62   2.435       .  S
Zr61         O63   2.434       .  S
Zr61         O67   2.374       .  S
Zr61         O68   2.377       .  S
Zr61         O91   2.381   1_455  S
Zr61         O93   2.378   1_455  S
O62         H105   0.990       .  S
O63         H104   0.989   1_455  S
O63         H108   0.990       .  S
Zr64         O65   2.434   1_655  S
Zr64         O66   2.434       .  S
Zr64         O68   2.375   1_656  S
Zr64         O67   2.377   1_656  S
Zr64         O92   2.377       .  S
Zr64         O94   2.377       .  S
O65         H106   0.990       .  S
O65         H109   0.990   1_556  S
O66          H99   0.990       .  S
O67         Zr87   2.378   1_455  S
O68         Zr88   2.385   1_455  S
O68          H95   0.967       .  S
O69         Zr81   2.460       .  S
O69          C71   1.291       .  A
O70         Zr88   2.427       .  S
O70          C71   1.285       .  A
C71        C1543   1.494       .  S
O72         Zr84   2.471       .  S
O72          C74   1.292       .  A
O73         Zr87   2.401       .  S
O73          C74   1.283   1_554  A
C74        C1687   1.490       .  S
O75         Zr84   2.455       .  S
O75          C77   1.289       .  A
O76         Zr88   2.421       .  S
O76          C77   1.287   1_554  A
C77        C1495   1.495       .  S
O78         Zr81   2.451       .  S
O78          C80   1.288       .  A
O79         Zr87   2.435       .  S
O79          C80   1.290       .  A
C80        C1639   1.503       .  S
Zr81         O82   2.435       .  S
Zr81         O83   2.437       .  S
Zr81         O89   2.377       .  S
Zr81         O90   2.379       .  S
Zr81         O93   2.380       .  S
Zr81         O91   2.372       .  S
O82         H102   0.990       .  S
O82         H107   0.990       .  S
O83         H103   0.990       .  S
Zr84         O85   2.435       .  S
Zr84         O86   2.434       .  S
Zr84         O90   2.374   1_556  S
Zr84         O89   2.383   1_556  S
Zr84         O94   2.380       .  S
Zr84         O92   2.369       .  S
O85         H101   0.990       .  S
O86         H100   0.990       .  S
O86         H110   0.990       .  S
Zr87         O90   2.374       .  S
Zr87         O92   2.379   1_554  S
Zr87         O93   2.381       .  S
Zr88         O89   2.382       .  S
Zr88         O91   2.378       .  S
Zr88         O94   2.380   1_554  S
O89          H97   0.965       .  S
O92          H96   0.966       .  S
O93          H98   0.965       .  S
C111        N112   1.363       .  A
C111        N116   1.355       .  A
C111       C1351   1.484       .  S
N112        C113   1.362       .  A
C113        N114   1.360       .  A
C113       C1335   1.487       .  S
N114        C115   1.361       .  A
C115        N116   1.355       .  A
C115       C1316   1.479       .  S
C117        N118   1.360       .  A
C117        N122   1.354       .  A
C117       C1300   1.486       .  S
N118        C119   1.364       .  A
C119        N120   1.359       .  A
C119       C1284   1.488       .  S
N120        C121   1.357       .  A
C121        N122   1.355       .  A
C121       C1268   1.475       .  S
C123        N124   1.361       .  A
C123        N128   1.364       .  A
C123       C1255   1.497       .  S
N124        C125   1.363       .  A
C125        N126   1.356       .  A
C125       C1223   1.490       .  S
N126        C127   1.358       .  A
C127        N128   1.362       .  A
C127       C1236   1.484       .  S
C129        N130   1.363       .  A
C129        N134   1.357       .  A
C129       C1204   1.504       .  S
N130        C131   1.362       .  A
C131        N132   1.359       .  A
C131       C1172   1.482       .  S
N132        C133   1.357       .  A
C133        N134   1.357       .  A
C133       C1188   1.475       .  S
C135        N136   1.360       .  A
C135        N140   1.362       .  A
C135       C1156   1.496       .  S
N136        C137   1.359       .  A
C137        N138   1.358       .  A
C137       C1143   1.485       .  S
N138        C139   1.359       .  A
C139        N140   1.364       .  A
C139       C1124   1.492       .  S
C141        N142   1.361       .  A
C141        N146   1.358       .  A
C141       C1108   1.482       .  S
N142        C143   1.363       .  A
C143        N144   1.358       .  A
C143       C1076   1.491       .  S
N144        C145   1.359       .  A
C145        N146   1.359       .  A
C145       C1092   1.483       .  S
C147        N148   1.358       .  A
C147        N152   1.363       .  A
C147       C1063   1.495       .  S
N148        C149   1.358       .  A
C149        N150   1.353       .  A
C149       C1047   1.474       .  S
N150        C151   1.356       .  A
C151        N152   1.362       .  A
C151       C1028   1.480       .  S
C153        N154   1.361       .  A
C153        N158   1.359       .  A
C153       C1015   1.493       .  S
N154        C155   1.361       .  A
C155        N156   1.359       .  A
C155        C980   1.483       .  S
N156        C157   1.357       .  A
C157        N158   1.361       .  A
C157        C996   1.491       .  S
O159       Zr171   2.470       .  S
O159        C161   1.293       .  A
O160       Zr197   2.420       .  S
O160        C161   1.285       .  A
C161       C1207   1.485       .  S
O162       Zr174   2.467       .  S
O162        C164   1.292       .  A
O163       Zr198   2.428   1_565  S
O163        C164   1.287       .  A
C164       C1060   1.494       .  S
O165       Zr174   2.448       .  S
O165        C167   1.288       .  A
O166       Zr197   2.426   1_565  S
O166        C167   1.288       .  A
C167       C1348   1.486       .  S
O168       Zr171   2.453       .  S
O168        C170   1.290       .  A
O169       Zr198   2.432       .  S
O169        C170   1.289       .  A
C170       C1012   1.488       .  S
Zr171       O172   2.433       .  S
Zr171       O173   2.436       .  S
Zr171       O177   2.372       .  S
Zr171       O178   2.385       .  S
Zr171       O201   2.378       .  S
Zr171       O203   2.372       .  S
O172        H215   0.990       .  S
O173        H214   0.990       .  S
O173        H218   0.990       .  S
Zr174       O175   2.434       .  S
Zr174       O176   2.434       .  S
Zr174       O178   2.370   1_565  S
Zr174       O177   2.379   1_565  S
Zr174       O202   2.381       .  S
Zr174       O204   2.374       .  S
O175        H216   0.990       .  S
O175        H219   0.990       .  S
O176        H209   0.990       .  S
O177       Zr197   2.380       .  S
O178       Zr198   2.387       .  S
O178        H205   0.966       .  S
O179       Zr191   2.472       .  S
O179        C181   1.294       .  A
O180       Zr198   2.412       .  S
O180        C181   1.285   1_554  A
C181       C1159   1.489       .  S
O182       Zr194   2.468       .  S
O182        C184   1.292       .  A
O183       Zr197   2.412   1_565  S
O183        C184   1.285   1_554  A
C184       C1303   1.493       .  S
O185       Zr194   2.462       .  S
O185        C187   1.290       .  A
O186       Zr198   2.440   1_565  S
O186        C187   1.291   1_554  A
C187       C1111   1.514       .  S
O188       Zr191   2.471       .  S
O188        C190   1.293       .  A
O189       Zr197   2.430       .  S
O189        C190   1.287   1_554  A
C190       C1252   1.496       .  S
Zr191       O192   2.434       .  S
Zr191       O193   2.434   1_556  S
Zr191       O199   2.378       .  S
Zr191       O200   2.378       .  S
Zr191       O203   2.375   1_556  S
Zr191       O201   2.374   1_556  S
O192        H212   0.990       .  S
O192        H217   0.990       .  S
O193        H213   0.990   1_554  S
Zr194       O195   2.433       .  S
Zr194       O196   2.436   1_556  S
Zr194       O200   2.375   1_565  S
Zr194       O199   2.378   1_565  S
Zr194       O204   2.379   1_556  S
Zr194       O202   2.373   1_556  S
O195        H211   0.990       .  S
O196        H210   0.990       .  S
O196        H220   0.990   1_554  S
Zr197       O200   2.376   1_554  S
Zr197       O202   2.384   1_545  S
Zr197       O203   2.381       .  S
Zr198       O199   2.386   1_554  S
Zr198       O201   2.384       .  S
Zr198       O204   2.377   1_545  S
O199        H207   0.968       .  S
O202        H206   0.961       .  S
O203        H208   0.969       .  S
C221        N222   1.361       .  A
C221        N226   1.359       .  A
C221        C964   1.496       .  S
N222        C223   1.361       .  A
C223        N224   1.363       .  A
C223        C951   1.489       .  S
N224        C225   1.360       .  A
C225        N226   1.361       .  A
C225        C935   1.493       .  S
C227        N228   1.361       .  A
C227        N232   1.359       .  A
C227        C916   1.491       .  S
N228        C229   1.361       .  A
C229        N230   1.361       .  A
C229        C900   1.478       .  S
N230        C231   1.360       .  A
C231        N232   1.361       .  A
C231        C884   1.496       .  S
C233        N234   1.361       .  A
C233        N238   1.358       .  A
C233        C868   1.485       .  S
N234        C235   1.363       .  A
C235        N236   1.356       .  A
C235        C836   1.486       .  S
N236        C237   1.356       .  A
C237        N238   1.359       .  A
C237        C852   1.475       .  S
C239        N240   1.361       .  A
C239        N244   1.358       .  A
C239        C823   1.483       .  S
N240        C241   1.361       .  A
C241        N242   1.362       .  A
C241        C788   1.495       .  S
N242        C243   1.362       .  A
C243        N244   1.359       .  A
C243        C804   1.479       .  S
C245        N246   1.359       .  A
C245        N250   1.356       .  A
C245        C775   1.487       .  S
N246        C247   1.363       .  A
C247        N248   1.358       .  A
C247        C740   1.499       .  S
N248        C249   1.358       .  A
C249        N250   1.357       .  A
C249        C759   1.469       .  S
C251        N252   1.357       .  A
C251        N256   1.361       .  A
C251        C724   1.497       .  S
N252        C253   1.361       .  A
C253        N254   1.359       .  A
C253        C711   1.484       .  S
N254        C255   1.361       .  A
C255        N256   1.359       .  A
C255        C692   1.489       .  S
C257        N258   1.363       .  A
C257        N262   1.359       .  A
C257        C679   1.502       .  S
N258        C259   1.366       .  A
C259        N260   1.363       .  A
C259        C663   1.496       .  S
N260        C261   1.362       .  A
C261        N262   1.358       .  A
C261        C644   1.492       .  S
C263        N264   1.360       .  A
C263        N268   1.356       .  A
C263        C631   1.480       .  S
N264        C265   1.364       .  A
C265        N266   1.360       .  A
C265        C615   1.497       .  S
N266        C267   1.360       .  A
C267        N268   1.358       .  A
C267        C596   1.471       .  S
O269       Zr281   2.458       .  S
O269        C271   1.291       .  A
O270       Zr307   2.433   1_565  S
O270        C271   1.289   1_655  A
C271        C967   1.492       .  S
O272       Zr284   2.469       .  S
O272        C274   1.292       .  A
O273       Zr308   2.413       .  S
O273        C274   1.286   1_655  A
C274        C628   1.502       .  S
O275       Zr284   2.473       .  S
O275        C277   1.294       .  A
O276       Zr307   2.415       .  S
O276        C277   1.283   1_655  A
C277        C820   1.497       .  S
O278       Zr281   2.467       .  S
O278        C280   1.291       .  A
O279       Zr308   2.439   1_565  S
O279        C280   1.290   1_655  A
C280        C676   1.498       .  S
Zr281       O282   2.435       .  S
Zr281       O283   2.434   1_455  S
Zr281       O287   2.384   1_565  S
Zr281       O288   2.374   1_565  S
Zr281       O311   2.371   1_455  S
Zr281       O313   2.379   1_455  S
O282        H325   0.990       .  S
O283        H324   0.989       .  S
O283        H328   0.989   1_655  S
Zr284       O285   2.435       .  S
Zr284       O286   2.434       .  S
Zr284       O288   2.382       .  S
Zr284       O287   2.378       .  S
Zr284       O312   2.376   1_455  S
Zr284       O314   2.377   1_455  S
O285        H326   0.990       .  S
O285        H329   0.990       .  S
O286        H319   0.990       .  S
O287       Zr307   2.382   1_455  S
O288       Zr308   2.381   1_455  S
O288        H315   0.967       .  S
O289       Zr301   2.467       .  S
O289        C291   1.293       .  A
O290       Zr308   2.417   1_565  S
O290        C291   1.285       .  A
C291        C727   1.483       .  S
O292       Zr304   2.450       .  S
O292        C294   1.287       .  A
O293       Zr307   2.441       .  S
O293        C294   1.291       .  A
C294        C871   1.505       .  S
O295       Zr304   2.454       .  S
O295        C297   1.290       .  A
O296       Zr308   2.430       .  S
O296        C297   1.286       .  A
C297        C772   1.488       .  S
O298       Zr301   2.482       .  S
O298        C300   1.295       .  A
O299       Zr307   2.410   1_565  S
O299        C300   1.285       .  A
C300        C919   1.497       .  S
Zr301       O302   2.434       .  S
Zr301       O303   2.434       .  S
Zr301       O309   2.378   1_565  S
Zr301       O310   2.373   1_565  S
Zr301       O313   2.376       .  S
Zr301       O311   2.382       .  S
O302        H322   0.990       .  S
O302        H327   0.990       .  S
O303        H323   0.989       .  S
Zr304       O305   2.435       .  S
Zr304       O306   2.434       .  S
Zr304       O310   2.375       .  S
Zr304       O309   2.372       .  S
Zr304       O314   2.376       .  S
Zr304       O312   2.374       .  S
O305        H321   0.990       .  S
O306        H320   0.990       .  S
O306        H330   0.990       .  S
Zr307       O310   2.381       .  S
Zr307       O312   2.381       .  S
Zr307       O313   2.387   1_545  S
Zr308       O309   2.385       .  S
Zr308       O311   2.380   1_545  S
Zr308       O314   2.380       .  S
O309        H317   0.966       .  S
O312        H316   0.966       .  S
O313        H318   0.965       .  S
C331       C1511   1.482       .  S
C331        C332   1.393       .  A
C331        C336   1.412       .  A
C332        C333   1.395       .  A
C332        H351   1.086       .  S
C333       C1364   1.477   1_655  S
C333        C334   1.412       .  A
C334        C335   1.420       .  A
C334        C341   1.405   1_655  A
C335        C336   1.421       .  A
C335        C340   1.419       .  A
C336        C337   1.403       .  A
C337        C338   1.394       .  A
C337        H347   1.083       .  S
C338        C339   1.407       .  A
C338        H348   1.082       .  S
C339        C340   1.422       .  A
C339        C346   1.416       .  A
C340        C343   1.422       .  A
C341        C342   1.394       .  A
C341        H349   1.083       .  S
C342        C343   1.405   1_455  A
C342        H350   1.083       .  S
C343        C344   1.413       .  A
C344        C599   1.485   1_655  S
C344        C345   1.395       .  A
C345        C346   1.398       .  A
C345        H352   1.085       .  S
C346        C743   1.489       .  S
C353       C1031   1.484       .  S
C353        C354   1.396   1_565  A
C353        C358   1.414       .  A
C354        C355   1.396       .  A
C354        H373   1.086       .  S
C355        C983   1.491       .  S
C355        C356   1.419       .  A
C356        C357   1.425       .  A
C356        C363   1.405       .  A
C357        C358   1.422   1_545  A
C357        C362   1.423       .  A
C358        C359   1.405       .  A
C359        C360   1.395       .  A
C359        H369   1.083       .  S
C360        C361   1.405       .  A
C360        H370   1.083       .  S
C361        C362   1.424   1_565  A
C361        C368   1.415       .  A
C362        C365   1.423       .  A
C363        C364   1.399       .  A
C363        H371   1.083       .  S
C364        C365   1.407       .  A
C364        H372   1.082       .  S
C365        C366   1.420       .  A
C366        C612   1.492       .  S
C366        C367   1.400       .  A
C367        C368   1.396   1_545  A
C367        H374   1.086       .  S
C368        C647   1.492       .  S
C375       C1380   1.485       .  S
C375        C376   1.395       .  A
C375        C380   1.417       .  A
C376        C377   1.392       .  A
C376        H395   1.086       .  S
C377       C1415   1.483   1_554  S
C377        C378   1.414       .  A
C378        C379   1.423       .  A
C378        C385   1.404   1_554  A
C379        C380   1.422       .  A
C379        C384   1.422       .  A
C380        C381   1.406       .  A
C381        C382   1.397       .  A
C381        H391   1.083       .  S
C382        C383   1.406       .  A
C382        H392   1.083       .  S
C383        C384   1.423       .  A
C383        C390   1.418       .  A
C384        C387   1.422       .  A
C385        C386   1.395       .  A
C385        H393   1.083       .  S
C386        C387   1.407   1_556  A
C386        H394   1.082       .  S
C387        C388   1.417       .  A
C388       C1127   1.489   1_554  S
C388        C389   1.397       .  A
C389        C390   1.397       .  A
C389        H396   1.086       .  S
C390        C999   1.490       .  S
C397       C1319   1.481       .  S
C397        C398   1.396   1_565  A
C397        C402   1.412       .  A
C398        C399   1.395       .  A
C398        H417   1.086       .  S
C399       C1191   1.484       .  S
C399        C400   1.415       .  A
C400        C401   1.422       .  A
C400        C407   1.405       .  A
C401        C402   1.420   1_545  A
C401        C406   1.419       .  A
C402        C403   1.406       .  A
C403        C404   1.395       .  A
C403        H413   1.083       .  S
C404        C405   1.404       .  A
C404        H414   1.083       .  S
C405        C406   1.423   1_565  A
C405        C412   1.414       .  A
C406        C409   1.421       .  A
C407        C408   1.396       .  A
C407        H415   1.083       .  S
C408        C409   1.405       .  A
C408        H416   1.083       .  S
C409        C410   1.412       .  A
C410        C756   1.479       .  S
C410        C411   1.394       .  A
C411        C412   1.392   1_545  A
C411        H418   1.086       .  S
C412        C695   1.484       .  S
C419       C1604   1.489       .  S
C419        C420   1.395       .  A
C419        C424   1.418       .  A
C420        C421   1.396       .  A
C420        H439   1.086       .  S
C421       C1559   1.485   1_655  S
C421        C422   1.416       .  A
C422        C423   1.421       .  A
C422        C429   1.407   1_655  A
C423        C424   1.425       .  A
C423        C428   1.424       .  A
C424        C425   1.405       .  A
C425        C426   1.397       .  A
C425        H435   1.083       .  S
C426        C427   1.407       .  A
C426        H436   1.083       .  S
C427        C428   1.421       .  A
C427        C434   1.415       .  A
C428        C431   1.425       .  A
C429        C430   1.398       .  A
C429        H437   1.083       .  S
C430        C431   1.405   1_455  A
C430        H438   1.083       .  S
C431        C432   1.420       .  A
C432        C660   1.493   1_655  S
C432        C433   1.396       .  A
C433        C434   1.397       .  A
C433        H440   1.086       .  S
C434        C708   1.485       .  S
C441       C1079   1.484   1_545  S
C441        C442   1.394       .  A
C441        C446   1.414       .  A
C442        C443   1.395       .  A
C442        H461   1.086       .  S
C443       C1140   1.489       .  S
C443        C444   1.418       .  A
C444        C445   1.425       .  A
C444        C451   1.405       .  A
C445        C446   1.422       .  A
C445        C450   1.423       .  A
C446        C447   1.406   1_545  A
C447        C448   1.395       .  A
C447        H457   1.083       .  S
C448        C449   1.404       .  A
C448        H458   1.083       .  S
C449        C450   1.425   1_565  A
C449        C456   1.416       .  A
C450        C453   1.422       .  A
C451        C452   1.398       .  A
C451        H459   1.083       .  S
C452        C453   1.407       .  A
C452        H460   1.083       .  S
C453        C454   1.417       .  A
C454        C807   1.488       .  S
C454        C455   1.399       .  A
C455        C456   1.397   1_545  A
C455        H462   1.086       .  S
C456        C932   1.493       .  S
C463       C1476   1.482       .  S
C463        C464   1.394       .  A
C463        C468   1.413       .  A
C464        C465   1.394       .  A
C464        H483   1.086       .  S
C465       C1431   1.487   1_655  S
C465        C466   1.419       .  A
C466        C467   1.425       .  A
C466        C473   1.405   1_655  A
C467        C468   1.422       .  A
C467        C472   1.422       .  A
C468        C469   1.405       .  A
C469        C470   1.396       .  A
C469        H479   1.083       .  S
C470        C471   1.406       .  A
C470        H480   1.083       .  S
C471        C472   1.423       .  A
C471        C478   1.418       .  A
C472        C475   1.421       .  A
C473        C474   1.398       .  A
C473        H481   1.083       .  S
C474        C475   1.407   1_455  A
C474        H482   1.083       .  S
C475        C476   1.416       .  A
C476        C791   1.487   1_655  S
C476        C477   1.398       .  A
C477        C478   1.397       .  A
C477        H484   1.086       .  S
C478        C839   1.490       .  S
C485       C1703   1.483   1_554  S
C485        C486   1.393       .  A
C485        C490   1.413       .  A
C486        C487   1.394       .  A
C486        H505   1.087       .  S
C487       C1572   1.478       .  S
C487        C488   1.411       .  A
C488        C489   1.420       .  A
C488        C495   1.405       .  A
C489        C490   1.422       .  A
C489        C494   1.418       .  A
C490        C491   1.403   1_554  A
C491        C492   1.394       .  A
C491        H501   1.083       .  S
C492        C493   1.406   1_556  A
C492        H502   1.083       .  S
C493        C494   1.420       .  A
C493        C500   1.411       .  A
C494        C497   1.422       .  A
C495        C496   1.395       .  A
C495        H503   1.083       .  S
C496        C497   1.405       .  A
C496        H504   1.083       .  S
C497        C498   1.413       .  A
C498       C1044   1.484       .  S
C498        C499   1.398       .  A
C499        C500   1.398       .  A
C499        H506   1.086       .  S
C500       C1095   1.483   1_554  S
C507       C1460   1.488   1_554  S
C507        C508   1.398       .  A
C507        C512   1.418       .  A
C508        C509   1.396       .  A
C508        H527   1.086       .  S
C509       C1527   1.486       .  S
C509        C510   1.414       .  A
C510        C511   1.422       .  A
C510        C517   1.406       .  A
C511        C512   1.423       .  A
C511        C516   1.422       .  A
C512        C513   1.406   1_554  A
C513        C514   1.399       .  A
C513        H523   1.083       .  S
C514        C515   1.406   1_556  A
C514        H524   1.083       .  S
C515        C516   1.423       .  A
C515        C522   1.418       .  A
C516        C519   1.423       .  A
C517        C518   1.394       .  A
C517        H525   1.083       .  S
C518        C519   1.404       .  A
C518        H526   1.083       .  S
C519        C520   1.413       .  A
C520       C1175   1.484       .  S
C520        C521   1.394       .  A
C521        C522   1.396       .  A
C521        H528   1.086       .  S
C522       C1220   1.487   1_554  S
C529       C1655   1.485       .  S
C529        C530   1.396       .  A
C529        C534   1.416       .  A
C530        C531   1.396       .  A
C530        H549   1.086       .  S
C531       C1719   1.490   1_655  S
C531        C532   1.419       .  A
C532        C533   1.424       .  A
C532        C539   1.405   1_655  A
C533        C534   1.422       .  A
C533        C538   1.424       .  A
C534        C535   1.405       .  A
C535        C536   1.397       .  A
C535        H545   1.083       .  S
C536        C537   1.406       .  A
C536        H546   1.082       .  S
C537        C538   1.425       .  A
C537        C544   1.419       .  A
C538        C541   1.423       .  A
C539        C540   1.398       .  A
C539        H547   1.083       .  S
C540        C541   1.406   1_455  A
C540        H548   1.083       .  S
C541        C542   1.417       .  A
C542        C948   1.490   1_655  S
C542        C543   1.397       .  A
C543        C544   1.397       .  A
C543        H550   1.086       .  S
C544        C887   1.493       .  S
C551       C1239   1.487       .  S
C551        C552   1.394       .  A
C551        C556   1.416       .  A
C552        C553   1.396       .  A
C552        H571   1.086       .  S
C553       C1287   1.484   1_545  S
C553        C554   1.416       .  A
C554        C555   1.420       .  A
C554        C561   1.408   1_545  A
C555        C556   1.424       .  A
C555        C560   1.421       .  A
C556        C557   1.405       .  A
C557        C558   1.396       .  A
C557        H567   1.083       .  S
C558        C559   1.406       .  A
C558        H568   1.083       .  S
C559        C560   1.420       .  A
C559        C566   1.412       .  A
C560        C563   1.425       .  A
C561        C562   1.396       .  A
C561        H569   1.082       .  S
C562        C563   1.403   1_565  A
C562        H570   1.083       .  S
C563        C564   1.417       .  A
C564        C903   1.488   1_545  S
C564        C565   1.394       .  A
C565        C566   1.392       .  A
C565        H572   1.086       .  S
C566        C855   1.478       .  S
C573       C1623   1.486       .  S
C573        C574   1.394       .  A
C573        C578   1.419       .  A
C574        C575   1.393       .  A
C574        H593   1.087       .  S
C575       C1671   1.483   1_554  S
C575        C576   1.413       .  A
C576        C577   1.424       .  A
C576        C583   1.404   1_554  A
C577        C578   1.423       .  A
C577        C582   1.422       .  A
C578        C579   1.407       .  A
C579        C580   1.401       .  A
C579        H589   1.083       .  S
C580        C581   1.406       .  A
C580        H590   1.083       .  S
C581        C582   1.425       .  A
C581        C588   1.420       .  A
C582        C585   1.422       .  A
C583        C584   1.394       .  A
C583        H591   1.083       .  S
C584        C585   1.405   1_556  A
C584        H592   1.083       .  S
C585        C586   1.412       .  A
C586       C1271   1.482   1_554  S
C586        C587   1.393       .  A
C587        C588   1.394       .  A
C587        H594   1.086       .  S
C588       C1332   1.487       .  S
C595        C596   1.405       .  A
C595        C600   1.411       .  A
C595        H602   1.083       .  S
C596        C597   1.418       .  A
C597        C598   1.401       .  A
C597        C604   1.520       .  S
C598        C599   1.401       .  A
C598        H603   1.085   1_455  S
C599        C600   1.416       .  A
C600        C601   1.518       .  S
C601        F605   1.383       .  S
C601        F606   1.381       .  S
C601        F607   1.384       .  S
C604        F608   1.379       .  S
C604        F609   1.383       .  S
C604        F610   1.384   1_455  S
C611        C612   1.402       .  A
C611        C616   1.413       .  A
C611        H618   1.083       .  S
C612        C613   1.416       .  A
C613        C614   1.403       .  A
C613        C620   1.516       .  S
C614        C615   1.406       .  A
C614        H619   1.085       .  S
C615        C616   1.427       .  A
C616        C617   1.519       .  S
C617        F621   1.385       .  S
C617        F622   1.383       .  S
C617        F623   1.381       .  S
C620        F624   1.384       .  S
C620        F625   1.383       .  S
C620        F626   1.383       .  S
C627        C628   1.412       .  A
C627        C632   1.406       .  A
C627        H634   1.082       .  S
C628        C629   1.426       .  A
C629        C630   1.413       .  A
C629        C636   1.519       .  S
C630        C631   1.401       .  A
C630        H635   1.083       .  S
C631        C632   1.412       .  A
C632        C633   1.520       .  S
C633        F637   1.385       .  S
C633        F638   1.382       .  S
C633        F639   1.383       .  S
C636        F640   1.382       .  S
C636        F641   1.383       .  S
C636        F642   1.385       .  S
C643        C644   1.405       .  A
C643        C648   1.410       .  A
C643        H650   1.082       .  S
C644        C645   1.421       .  A
C645        C646   1.412       .  A
C645        C652   1.518       .  S
C646        C647   1.403       .  A
C646        H651   1.083       .  S
C647        C648   1.417       .  A
C648        C649   1.520       .  S
C649        F653   1.384       .  S
C649        F654   1.381       .  S
C649        F655   1.383       .  S
C652        F656   1.383       .  S
C652        F657   1.381       .  S
C652        F658   1.385       .  S
C659        C660   1.402       .  A
C659        C664   1.413       .  A
C659        H666   1.083       .  S
C660        C661   1.419       .  A
C661        C662   1.408       .  A
C661        C668   1.517       .  S
C662        C663   1.404       .  A
C662        H667   1.085       .  S
C663        C664   1.424       .  A
C664        C665   1.518       .  S
C665        F669   1.385       .  S
C665        F670   1.382       .  S
C665        F671   1.383       .  S
C668        F672   1.384       .  S
C668        F673   1.382   1_455  S
C668        F674   1.383   1_455  S
C675        C676   1.402       .  A
C675        C680   1.412       .  A
C675        H682   1.083       .  S
C676        C677   1.421       .  A
C677        C678   1.417       .  A
C677        C684   1.517       .  S
C678        C679   1.408       .  A
C678        H683   1.083       .  S
C679        C680   1.425       .  A
C680        C681   1.520       .  S
C681        F685   1.380   1_565  S
C681        F686   1.384       .  S
C681        F687   1.380       .  S
C684        F688   1.383   1_455  S
C684        F689   1.382       .  S
C684        F690   1.385       .  S
C691        C692   1.405       .  A
C691        C696   1.406       .  A
C691        H698   1.080       .  S
C692        C693   1.422       .  A
C693        C694   1.410       .  A
C693        C700   1.518       .  S
C694        C695   1.402       .  A
C694        H699   1.083       .  S
C695        C696   1.415       .  A
C696        C697   1.520       .  S
C697        F701   1.385       .  S
C697        F702   1.383       .  S
C697        F703   1.382       .  S
C700        F704   1.383       .  S
C700        F705   1.383       .  S
C700        F706   1.385       .  S
C707        C708   1.401       .  A
C707        C712   1.408       .  A
C707        H714   1.083       .  S
C708        C709   1.414       .  A
C709        C710   1.407       .  A
C709        C716   1.517       .  S
C710        C711   1.404       .  A
C710        H715   1.083       .  S
C711        C712   1.422       .  A
C712        C713   1.519       .  S
C713        F717   1.385       .  S
C713        F718   1.384       .  S
C713        F719   1.382       .  S
C716        F720   1.381       .  S
C716        F721   1.383       .  S
C716        F722   1.384       .  S
C723        C724   1.407       .  A
C723        C728   1.405       .  A
C723        H730   1.082       .  S
C724        C725   1.426       .  A
C725        C726   1.414       .  A
C725        C732   1.520       .  S
C726        C727   1.403       .  A
C726        H731   1.083       .  S
C727        C728   1.416       .  A
C728        C729   1.520   1_565  S
C729        F733   1.385       .  S
C729        F734   1.382       .  S
C729        F735   1.383       .  S
C732        F736   1.382       .  S
C732        F737   1.383       .  S
C732        F738   1.385       .  S
C739        C740   1.409       .  A
C739        C744   1.401       .  A
C739        H746   1.084       .  S
C740        C741   1.429       .  A
C741        C742   1.409       .  A
C741        C748   1.520       .  S
C742        C743   1.402       .  A
C742        H747   1.083       .  S
C743        C744   1.414       .  A
C744        C745   1.518       .  S
C745        F749   1.384       .  S
C745        F750   1.383       .  S
C745        F751   1.383       .  S
C748        F752   1.383       .  S
C748        F753   1.380       .  S
C748        F754   1.385       .  S
C755        C756   1.401       .  A
C755        C760   1.402       .  A
C755        H762   1.085       .  S
C756        C757   1.414       .  A
C757        C758   1.407       .  A
C757        C764   1.518       .  S
C758        C759   1.403       .  A
C758        H763   1.083       .  S
C759        C760   1.420       .  A
C760        C761   1.521       .  S
C761        F765   1.384       .  S
C761        F766   1.380       .  S
C761        F767   1.383       .  S
C764        F768   1.383       .  S
C764        F769   1.382       .  S
C764        F770   1.384       .  S
C771        C772   1.405       .  A
C771        C776   1.411       .  A
C771        H778   1.083       .  S
C772        C773   1.419       .  A
C773        C774   1.408       .  A
C773        C780   1.519       .  S
C774        C775   1.404       .  A
C774        H779   1.083       .  S
C775        C776   1.419       .  A
C776        C777   1.519       .  S
C777        F781   1.384       .  S
C777        F782   1.382       .  S
C777        F783   1.384       .  S
C780        F784   1.381       .  S
C780        F785   1.383       .  S
C780        F786   1.385       .  S
C787        C788   1.409       .  A
C787        C792   1.411       .  A
C787        H794   1.083       .  S
C788        C789   1.424       .  A
C789        C790   1.408       .  A
C789        C796   1.515       .  S
C790        C791   1.398       .  A
C790        H795   1.083       .  S
C791        C792   1.413       .  A
C792        C793   1.518       .  S
C793        F797   1.384       .  S
C793        F798   1.383       .  S
C793        F799   1.381   1_455  S
C796        F800   1.382       .  S
C796        F801   1.379       .  S
C796        F802   1.384       .  S
C803        C804   1.406       .  A
C803        C808   1.414       .  A
C803        H810   1.083       .  S
C804        C805   1.419       .  A
C805        C806   1.401       .  A
C805        C812   1.518       .  S
C806        C807   1.400       .  A
C806        H811   1.085       .  S
C807        C808   1.417       .  A
C808        C809   1.517       .  S
C809        F813   1.383       .  S
C809        F814   1.382       .  S
C809        F815   1.385       .  S
C812        F816   1.379       .  S
C812        F817   1.382       .  S
C812        F818   1.385       .  S
C819        C820   1.409       .  A
C819        C824   1.414       .  A
C819        H826   1.083       .  S
C820        C821   1.427       .  A
C821        C822   1.406       .  A
C821        C828   1.520   1_455  S
C822        C823   1.399       .  A
C822        H827   1.084       .  S
C823        C824   1.416       .  A
C824        C825   1.517       .  S
C825        F829   1.384       .  S
C825        F830   1.382       .  S
C825        F831   1.384       .  S
C828        F832   1.383       .  S
C828        F833   1.382       .  S
C828        F834   1.385       .  S
C835        C836   1.402       .  A
C835        C840   1.405       .  A
C835        H842   1.085       .  S
C836        C837   1.423       .  A
C837        C838   1.409       .  A
C837        C844   1.521       .  S
C838        C839   1.402       .  A
C838        H843   1.083       .  S
C839        C840   1.419       .  A
C840        C841   1.516       .  S
C841        F845   1.383       .  S
C841        F846   1.382       .  S
C841        F847   1.384       .  S
C844        F848   1.384       .  S
C844        F849   1.382       .  S
C844        F850   1.385       .  S
C851        C852   1.402       .  A
C851        C856   1.403       .  A
C851        H858   1.083       .  S
C852        C853   1.415       .  A
C853        C854   1.407       .  A
C853        C860   1.516       .  S
C854        C855   1.402       .  A
C854        H859   1.083       .  S
C855        C856   1.416       .  A
C856        C857   1.519       .  S
C857        F861   1.385       .  S
C857        F862   1.382       .  S
C857        F863   1.382       .  S
C860        F864   1.382       .  S
C860        F865   1.383       .  S
C860        F866   1.385       .  S
C867        C868   1.399       .  A
C867        C872   1.413       .  A
C867        H874   1.083       .  S
C868        C869   1.416       .  A
C869        C870   1.410       .  A
C869        C876   1.520       .  S
C870        C871   1.410       .  A
C870        H875   1.083       .  S
C871        C872   1.430       .  A
C872        C873   1.520       .  S
C873        F877   1.385       .  S
C873        F878   1.383       .  S
C873        F879   1.383       .  S
C876        F880   1.383       .  S
C876        F881   1.384       .  S
C876        F882   1.384       .  S
C883        C884   1.406       .  A
C883        C888   1.408       .  A
C883        H890   1.083       .  S
C884        C885   1.425       .  A
C885        C886   1.411       .  A
C885        C892   1.517       .  S
C886        C887   1.401       .  A
C886        H891   1.083       .  S
C887        C888   1.417       .  A
C888        C889   1.519       .  S
C889        F893   1.385       .  S
C889        F894   1.383       .  S
C889        F895   1.381       .  S
C892        F896   1.383       .  S
C892        F897   1.379       .  S
C892        F898   1.384       .  S
C899        C900   1.404       .  A
C899        C904   1.411       .  A
C899        H906   1.085       .  S
C900        C901   1.418       .  A
C901        C902   1.403       .  A
C901        C908   1.520       .  S
C902        C903   1.404       .  A
C902        H907   1.085       .  S
C903        C904   1.420       .  A
C904        C905   1.516       .  S
C905        F909   1.383       .  S
C905        F910   1.381       .  S
C905        F911   1.383       .  S
C908        F912   1.385       .  S
C908        F913   1.380       .  S
C908        F914   1.382       .  S
C915        C916   1.405       .  A
C915        C920   1.414       .  A
C915        H922   1.083       .  S
C916        C917   1.420       .  A
C917        C918   1.409       .  A
C917        C924   1.521       .  S
C918        C919   1.408       .  A
C918        H923   1.083       .  S
C919        C920   1.421       .  A
C920        C921   1.517       .  S
C921        F925   1.385       .  S
C921        F926   1.381       .  S
C921        F927   1.383       .  S
C924        F928   1.382       .  S
C924        F929   1.384       .  S
C924        F930   1.385       .  S
C931        C932   1.402       .  A
C931        C936   1.412       .  A
C931        H938   1.083       .  S
C932        C933   1.414       .  A
C933        C934   1.409       .  A
C933        C940   1.516       .  S
C934        C935   1.406       .  A
C934        H939   1.083       .  S
C935        C936   1.423       .  A
C936        C937   1.518       .  S
C937        F941   1.385       .  S
C937        F942   1.382       .  S
C937        F943   1.383       .  S
C940        F944   1.384       .  S
C940        F945   1.382       .  S
C940        F946   1.384       .  S
C947        C948   1.404       .  A
C947        C952   1.411       .  A
C947        H954   1.084       .  S
C948        C949   1.416       .  A
C949        C950   1.408       .  A
C949        C956   1.519       .  S
C950        C951   1.404       .  A
C950        H955   1.082       .  S
C951        C952   1.420       .  A
C952        C953   1.518       .  S
C953        F957   1.385       .  S
C953        F958   1.384       .  S
C953        F959   1.381       .  S
C956        F960   1.381       .  S
C956        F961   1.383   1_455  S
C956        F962   1.385       .  S
C963        C964   1.406       .  A
C963        C968   1.411       .  A
C963        H970   1.082       .  S
C964        C965   1.423       .  A
C965        C966   1.411       .  A
C965        C972   1.520       .  S
C966        C967   1.404       .  A
C966        H971   1.083       .  S
C967        C968   1.419       .  A
C968        C969   1.517       .  S
C969        F973   1.384       .  S
C969        F974   1.381       .  S
C969        F975   1.384   1_455  S
C972        F976   1.382       .  S
C972        F977   1.384       .  S
C972        F978   1.385   1_565  S
C979        C980   1.401       .  A
C979        C984   1.405       .  A
C979        H986   1.082       .  S
C980        C981   1.416       .  A
C981        C982   1.413       .  A
C981        C988   1.517       .  S
C982        C983   1.407       .  A
C982        H987   1.083       .  S
C983        C984   1.417       .  A
C984        C985   1.517       .  S
C985        F989   1.385       .  S
C985        F990   1.381       .  S
C985        F991   1.377       .  S
C988        F992   1.384       .  S
C988        F993   1.382       .  S
C988        F994   1.384       .  S
C995        C996   1.403       .  A
C995       C1000   1.403       .  A
C995       H1002   1.085       .  S
C996        C997   1.425       .  A
C997        C998   1.412       .  A
C997       C1004   1.519       .  S
C998        C999   1.403       .  A
C998       H1003   1.083       .  S
C999       C1000   1.417       .  A
C1000      C1001   1.515       .  S
C1001      F1005   1.384       .  S
C1001      F1006   1.383       .  S
C1001      F1007   1.382       .  S
C1004      F1008   1.383       .  S
C1004      F1009   1.383       .  S
C1004      F1010   1.385       .  S
C1011      C1012   1.403       .  A
C1011      C1016   1.410       .  A
C1011      H1018   1.084       .  S
C1012      C1013   1.419       .  A
C1013      C1014   1.410       .  A
C1013      C1020   1.518       .  S
C1014      C1015   1.405       .  A
C1014      H1019   1.083       .  S
C1015      C1016   1.423       .  A
C1016      C1017   1.520       .  S
C1017      F1021   1.385       .  S
C1017      F1022   1.383       .  S
C1017      F1023   1.384       .  S
C1020      F1024   1.381       .  S
C1020      F1025   1.381       .  S
C1020      F1026   1.385       .  S
C1027      C1028   1.404       .  A
C1027      C1032   1.404       .  A
C1027      H1034   1.083       .  S
C1028      C1029   1.416       .  A
C1029      C1030   1.407       .  A
C1029      C1036   1.516       .  S
C1030      C1031   1.404       .  A
C1030      H1035   1.084       .  S
C1031      C1032   1.417       .  A
C1032      C1033   1.519       .  S
C1033      F1037   1.385       .  S
C1033      F1038   1.377       .  S
C1033      F1039   1.381       .  S
C1036      F1040   1.381       .  S
C1036      F1041   1.384       .  S
C1036      F1042   1.385       .  S
C1043      C1044   1.404       .  A
C1043      C1048   1.406       .  A
C1043      H1050   1.084       .  S
C1044      C1045   1.416       .  A
C1045      C1046   1.405       .  A
C1045      C1052   1.517       .  S
C1046      C1047   1.402       .  A
C1046      H1051   1.083       .  S
C1047      C1048   1.412       .  A
C1048      C1049   1.516       .  S
C1049      F1053   1.384       .  S
C1049      F1054   1.384       .  S
C1049      F1055   1.382       .  S
C1052      F1056   1.382       .  S
C1052      F1057   1.380       .  S
C1052      F1058   1.385       .  S
C1059      C1060   1.405       .  A
C1059      C1064   1.412       .  A
C1059      H1066   1.083       .  S
C1060      C1061   1.419       .  A
C1061      C1062   1.410       .  A
C1061      C1068   1.515       .  S
C1062      C1063   1.404       .  A
C1062      H1067   1.082       .  S
C1063      C1064   1.424       .  A
C1064      C1065   1.521       .  S
C1065      F1069   1.382       .  S
C1065      F1070   1.384       .  S
C1065      F1071   1.382       .  S
C1068      F1072   1.380       .  S
C1068      F1073   1.381       .  S
C1068      F1074   1.385       .  S
C1075      C1076   1.406       .  A
C1075      C1080   1.408       .  A
C1075      H1082   1.083       .  S
C1076      C1077   1.426       .  A
C1077      C1078   1.408       .  A
C1077      C1084   1.518       .  S
C1078      C1079   1.398       .  A
C1078      H1083   1.083       .  S
C1079      C1080   1.413       .  A
C1080      C1081   1.518       .  S
C1081      F1085   1.384       .  S
C1081      F1086   1.382   1_565  S
C1081      F1087   1.383       .  S
C1084      F1088   1.383       .  S
C1084      F1089   1.383       .  S
C1084      F1090   1.385       .  S
C1091      C1092   1.404       .  A
C1091      C1096   1.403       .  A
C1091      H1098   1.078       .  S
C1092      C1093   1.416       .  A
C1093      C1094   1.408       .  A
C1093      C1100   1.516       .  S
C1094      C1095   1.403       .  A
C1094      H1099   1.084       .  S
C1095      C1096   1.414       .  A
C1096      C1097   1.520       .  S
C1097      F1101   1.385       .  S
C1097      F1102   1.380   1_556  S
C1097      F1103   1.381       .  S
C1100      F1104   1.382       .  S
C1100      F1105   1.384       .  S
C1100      F1106   1.385       .  S
C1107      C1108   1.397       .  A
C1107      C1112   1.415       .  A
C1107      H1114   1.083       .  S
C1108      C1109   1.412       .  A
C1109      C1110   1.410       .  A
C1109      C1116   1.520       .  S
C1110      C1111   1.414       .  A
C1110      H1115   1.082   1_556  S
C1111      C1112   1.433       .  A
C1112      C1113   1.520       .  S
C1113      F1117   1.385       .  S
C1113      F1118   1.383       .  S
C1113      F1119   1.382       .  S
C1116      F1120   1.383       .  S
C1116      F1121   1.383       .  S
C1116      F1122   1.384   1_556  S
C1123      C1124   1.405       .  A
C1123      C1128   1.406       .  A
C1123      H1130   1.085       .  S
C1124      C1125   1.425       .  A
C1125      C1126   1.408       .  A
C1125      C1132   1.519       .  S
C1126      C1127   1.401       .  A
C1126      H1131   1.083       .  S
C1127      C1128   1.418       .  A
C1128      C1129   1.518       .  S
C1129      F1133   1.382   1_556  S
C1129      F1134   1.383   1_556  S
C1129      F1135   1.383       .  S
C1132      F1136   1.383       .  S
C1132      F1137   1.383       .  S
C1132      F1138   1.385       .  S
C1139      C1140   1.405       .  A
C1139      C1144   1.411       .  A
C1139      H1146   1.083       .  S
C1140      C1141   1.416       .  A
C1141      C1142   1.408       .  A
C1141      C1148   1.518       .  S
C1142      C1143   1.404       .  A
C1142      H1147   1.081       .  S
C1143      C1144   1.417       .  A
C1144      C1145   1.518       .  S
C1145      F1149   1.385       .  S
C1145      F1150   1.381       .  S
C1145      F1151   1.383       .  S
C1148      F1152   1.383       .  S
C1148      F1153   1.382       .  S
C1148      F1154   1.385       .  S
C1155      C1156   1.408       .  A
C1155      C1160   1.413       .  A
C1155      H1162   1.083       .  S
C1156      C1157   1.423       .  A
C1157      C1158   1.409       .  A
C1157      C1164   1.521       .  S
C1158      C1159   1.404       .  A
C1158      H1163   1.084       .  S
C1159      C1160   1.417       .  A
C1160      C1161   1.518       .  S
C1161      F1165   1.384       .  S
C1161      F1166   1.382       .  S
C1161      F1167   1.385   1_556  S
C1164      F1168   1.382       .  S
C1164      F1169   1.384       .  S
C1164      F1170   1.385       .  S
C1171      C1172   1.403       .  A
C1171      C1176   1.406       .  A
C1171      H1178   1.082       .  S
C1172      C1173   1.417       .  A
C1173      C1174   1.409       .  A
C1173      C1180   1.517       .  S
C1174      C1175   1.402       .  A
C1174      H1179   1.083       .  S
C1175      C1176   1.415       .  A
C1176      C1177   1.519       .  S
C1177      F1181   1.383       .  S
C1177      F1182   1.385       .  S
C1177      F1183   1.383       .  S
C1180      F1184   1.383       .  S
C1180      F1185   1.381       .  S
C1180      F1186   1.385       .  S
C1187      C1188   1.403       .  A
C1187      C1192   1.408       .  A
C1187      H1194   1.083       .  S
C1188      C1189   1.416       .  A
C1189      C1190   1.406       .  A
C1189      C1196   1.519       .  S
C1190      C1191   1.403       .  A
C1190      H1195   1.083       .  S
C1191      C1192   1.414       .  A
C1192      C1193   1.516       .  S
C1193      F1197   1.385       .  S
C1193      F1198   1.383       .  S
C1193      F1199   1.383       .  S
C1196      F1200   1.381       .  S
C1196      F1201   1.384       .  S
C1196      F1202   1.385       .  S
C1203      C1204   1.410       .  A
C1203      C1208   1.409       .  A
C1203      H1210   1.082       .  S
C1204      C1205   1.430       .  A
C1205      C1206   1.413       .  A
C1205      C1212   1.521       .  S
C1206      C1207   1.400       .  A
C1206      H1211   1.083       .  S
C1207      C1208   1.415       .  A
C1208      C1209   1.519       .  S
C1209      F1213   1.385       .  S
C1209      F1214   1.383       .  S
C1209      F1215   1.381       .  S
C1212      F1216   1.384       .  S
C1212      F1217   1.383       .  S
C1212      F1218   1.385       .  S
C1219      C1220   1.400       .  A
C1219      C1224   1.410       .  A
C1219      H1226   1.083       .  S
C1220      C1221   1.415       .  A
C1221      C1222   1.407       .  A
C1221      C1228   1.518       .  S
C1222      C1223   1.404       .  A
C1222      H1227   1.083       .  S
C1223      C1224   1.426       .  A
C1224      C1225   1.520       .  S
C1225      F1229   1.385       .  S
C1225      F1230   1.382       .  S
C1225      F1231   1.383       .  S
C1228      F1232   1.385       .  S
C1228      F1233   1.383       .  S
C1228      F1234   1.381   1_556  S
C1235      C1236   1.403       .  A
C1235      C1240   1.403       .  A
C1235      H1242   1.081       .  S
C1236      C1237   1.417       .  A
C1237      C1238   1.413       .  A
C1237      C1244   1.517       .  S
C1238      C1239   1.406       .  A
C1238      H1243   1.083       .  S
C1239      C1240   1.416       .  A
C1240      C1241   1.520       .  S
C1241      F1245   1.385       .  S
C1241      F1246   1.381       .  S
C1241      F1247   1.383       .  S
C1244      F1248   1.383       .  S
C1244      F1249   1.382       .  S
C1244      F1250   1.385       .  S
C1251      C1252   1.406       .  A
C1251      C1256   1.415       .  A
C1251      H1258   1.083       .  S
C1252      C1253   1.421       .  A
C1253      C1254   1.410       .  A
C1253      C1260   1.518       .  S
C1254      C1255   1.405       .  A
C1254      H1259   1.083       .  S
C1255      C1256   1.422       .  A
C1256      C1257   1.518       .  S
C1257      F1261   1.385       .  S
C1257      F1262   1.383       .  S
C1257      F1263   1.382       .  S
C1260      F1264   1.381       .  S
C1260      F1265   1.383       .  S
C1260      F1266   1.385       .  S
C1267      C1268   1.403       .  A
C1267      C1272   1.408       .  A
C1267      H1274   1.083       .  S
C1268      C1269   1.416       .  A
C1269      C1270   1.405       .  A
C1269      C1276   1.518       .  S
C1270      C1271   1.401       .  A
C1270      H1275   1.084       .  S
C1271      C1272   1.417       .  A
C1272      C1273   1.520   1_556  S
C1273      F1277   1.385   1_554  S
C1273      F1278   1.382   1_554  S
C1273      F1279   1.383       .  S
C1276      F1280   1.384       .  S
C1276      F1281   1.383       .  S
C1276      F1282   1.384       .  S
C1283      C1284   1.405       .  A
C1283      C1288   1.403       .  A
C1283      H1290   1.085       .  S
C1284      C1285   1.424       .  A
C1285      C1286   1.407       .  A
C1285      C1292   1.520       .  S
C1286      C1287   1.401       .  A
C1286      H1291   1.083       .  S
C1287      C1288   1.416       .  A
C1288      C1289   1.517       .  S
C1289      F1293   1.384       .  S
C1289      F1294   1.383       .  S
C1289      F1295   1.383   1_565  S
C1292      F1296   1.382       .  S
C1292      F1297   1.383       .  S
C1292      F1298   1.385       .  S
C1299      C1300   1.405       .  A
C1299      C1304   1.413       .  A
C1299      H1306   1.083       .  S
C1300      C1301   1.419       .  A
C1301      C1302   1.405       .  A
C1301      C1308   1.522   1_556  S
C1302      C1303   1.407       .  A
C1302      H1307   1.083   1_556  S
C1303      C1304   1.421       .  A
C1304      C1305   1.518       .  S
C1305      F1309   1.385       .  S
C1305      F1310   1.382       .  S
C1305      F1311   1.382       .  S
C1308      F1312   1.384   1_554  S
C1308      F1313   1.383       .  S
C1308      F1314   1.385       .  S
C1315      C1316   1.400       .  A
C1315      C1320   1.401       .  A
C1315      H1322   1.078       .  S
C1316      C1317   1.418       .  A
C1317      C1318   1.410       .  A
C1317      C1324   1.519       .  S
C1318      C1319   1.404       .  A
C1318      H1323   1.083       .  S
C1319      C1320   1.416       .  A
C1320      C1321   1.522       .  S
C1321      F1325   1.384       .  S
C1321      F1326   1.381       .  S
C1321      F1327   1.383       .  S
C1324      F1328   1.383       .  S
C1324      F1329   1.382       .  S
C1324      F1330   1.385       .  S
C1331      C1332   1.400       .  A
C1331      C1336   1.407       .  A
C1331      H1338   1.083       .  S
C1332      C1333   1.417       .  A
C1333      C1334   1.412       .  A
C1333      C1340   1.516       .  S
C1334      C1335   1.405       .  A
C1334      H1339   1.083       .  S
C1335      C1336   1.420       .  A
C1336      C1337   1.517       .  S
C1337      F1341   1.384       .  S
C1337      F1342   1.379       .  S
C1337      F1343   1.384       .  S
C1340      F1344   1.385       .  S
C1340      F1345   1.383       .  S
C1340      F1346   1.383       .  S
C1347      C1348   1.404       .  A
C1347      C1352   1.407       .  A
C1347      H1354   1.083   1_565  S
C1348      C1349   1.420       .  A
C1349      C1350   1.408       .  A
C1349      C1356   1.518       .  S
C1350      C1351   1.401       .  A
C1350      H1355   1.083       .  S
C1351      C1352   1.422       .  A
C1352      C1353   1.521       .  S
C1353      F1357   1.386   1_565  S
C1353      F1358   1.383       .  S
C1353      F1359   1.383       .  S
C1356      F1360   1.383       .  S
C1356      F1361   1.383       .  S
C1356      F1362   1.385       .  S
C1363      C1364   1.398       .  A
C1363      C1368   1.401       .  A
C1363      H1370   1.085   1_455  S
C1364      C1365   1.412       .  A
C1365      C1366   1.408       .  A
C1365      C1372   1.517       .  S
C1366      C1367   1.405       .  A
C1366      H1371   1.083       .  S
C1367      C1368   1.419       .  A
C1368      C1369   1.519       .  S
C1369      F1373   1.385   1_455  S
C1369      F1374   1.382       .  S
C1369      F1375   1.380       .  S
C1372      F1376   1.383       .  S
C1372      F1377   1.383   1_455  S
C1372      F1378   1.384       .  S
C1379      C1380   1.400       .  A
C1379      C1384   1.410       .  A
C1379      H1386   1.083       .  S
C1380      C1381   1.415       .  A
C1381      C1382   1.403       .  A
C1381      C1388   1.517       .  S
C1382      C1383   1.406       .  A
C1382      H1387   1.084       .  S
C1383      C1384   1.426       .  A
C1384      C1385   1.518       .  S
C1385      F1389   1.385       .  S
C1385      F1390   1.380       .  S
C1385      F1391   1.382       .  S
C1388      F1392   1.383       .  S
C1388      F1393   1.383       .  S
C1388      F1394   1.384       .  S
C1395      C1396   1.401       .  A
C1395      C1400   1.413       .  A
C1395      H1402   1.083       .  S
C1396      C1397   1.412       .  A
C1397      C1398   1.404       .  A
C1397      C1404   1.521       .  S
C1398      C1399   1.410       .  A
C1398      H1403   1.083       .  S
C1399      C1400   1.426       .  A
C1400      C1401   1.519       .  S
C1401      F1405   1.385       .  S
C1401      F1406   1.383       .  S
C1401      F1407   1.383       .  S
C1404      F1408   1.383       .  S
C1404      F1409   1.382       .  S
C1404      F1410   1.385       .  S
C1411      C1412   1.402       .  A
C1411      C1416   1.404       .  A
C1411      H1418   1.084       .  S
C1412      C1413   1.416       .  A
C1413      C1414   1.409       .  A
C1413      C1420   1.517       .  S
C1414      C1415   1.404       .  A
C1414      H1419   1.083       .  S
C1415      C1416   1.416       .  A
C1416      C1417   1.518       .  S
C1417      F1421   1.383   1_556  S
C1417      F1422   1.382       .  S
C1417      F1423   1.385       .  S
C1420      F1424   1.380       .  S
C1420      F1425   1.384       .  S
C1420      F1426   1.384       .  S
C1427      C1428   1.403       .  A
C1427      C1432   1.407       .  A
C1427      H1434   1.085       .  S
C1428      C1429   1.416       .  A
C1429      C1430   1.411       .  A
C1429      C1436   1.516       .  S
C1430      C1431   1.405       .  A
C1430      H1435   1.083       .  S
C1431      C1432   1.420       .  A
C1432      C1433   1.518       .  S
C1433      F1437   1.384       .  S
C1433      F1438   1.381   1_455  S
C1433      F1439   1.383   1_455  S
C1436      F1440   1.384       .  S
C1436      F1441   1.381       .  S
C1436      F1442   1.384       .  S
C1443      C1444   1.402       .  A
C1443      C1448   1.413       .  A
C1443      H1450   1.083   1_556  S
C1444      C1445   1.413       .  A
C1445      C1446   1.411       .  A
C1445      C1452   1.517       .  S
C1446      C1447   1.410       .  A
C1446      H1451   1.081       .  S
C1447      C1448   1.430       .  A
C1448      C1449   1.522   1_556  S
C1449      F1453   1.384       .  S
C1449      F1454   1.381   1_554  S
C1449      F1455   1.383       .  S
C1452      F1456   1.382       .  S
C1452      F1457   1.384   1_455  S
C1452      F1458   1.384       .  S
C1459      C1460   1.401       .  A
C1459      C1464   1.408       .  A
C1459      H1466   1.083       .  S
C1460      C1461   1.415       .  A
C1461      C1462   1.410       .  A
C1461      C1468   1.517       .  S
C1462      C1463   1.405       .  A
C1462      H1467   1.083       .  S
C1463      C1464   1.422       .  A
C1464      C1465   1.519       .  S
C1465      F1469   1.385       .  S
C1465      F1470   1.384       .  S
C1465      F1471   1.382       .  S
C1468      F1472   1.382   1_556  S
C1468      F1473   1.383       .  S
C1468      F1474   1.385       .  S
C1475      C1476   1.402       .  A
C1475      C1480   1.407       .  A
C1475      H1482   1.084       .  S
C1476      C1477   1.415       .  A
C1477      C1478   1.406       .  A
C1477      C1484   1.518       .  S
C1478      C1479   1.403       .  A
C1478      H1483   1.083       .  S
C1479      C1480   1.417       .  A
C1480      C1481   1.517       .  S
C1481      F1485   1.385       .  S
C1481      F1486   1.382       .  S
C1481      F1487   1.384       .  S
C1484      F1488   1.384       .  S
C1484      F1489   1.382       .  S
C1484      F1490   1.382       .  S
C1491      C1492   1.403       .  A
C1491      C1496   1.412       .  A
C1491      H1498   1.083       .  S
C1492      C1493   1.419       .  A
C1493      C1494   1.407       .  A
C1493      C1500   1.521       .  S
C1494      C1495   1.407       .  A
C1494      H1499   1.083       .  S
C1495      C1496   1.423       .  A
C1496      C1497   1.519       .  S
C1497      F1501   1.385       .  S
C1497      F1502   1.383       .  S
C1497      F1503   1.383       .  S
C1500      F1504   1.382       .  S
C1500      F1505   1.383       .  S
C1500      F1506   1.385       .  S
C1507      C1508   1.402       .  A
C1507      C1512   1.402       .  A
C1507      H1514   1.082       .  S
C1508      C1509   1.420       .  A
C1509      C1510   1.408       .  A
C1509      C1516   1.515       .  S
C1510      C1511   1.402       .  A
C1510      H1515   1.084       .  S
C1511      C1512   1.416       .  A
C1512      C1513   1.520       .  S
C1513      F1517   1.385       .  S
C1513      F1518   1.382       .  S
C1513      F1519   1.382       .  S
C1516      F1520   1.382       .  S
C1516      F1521   1.382       .  S
C1516      F1522   1.384       .  S
C1523      C1524   1.403       .  A
C1523      C1528   1.405       .  A
C1523      H1530   1.085       .  S
C1524      C1525   1.422       .  A
C1525      C1526   1.410       .  A
C1525      C1532   1.519       .  S
C1526      C1527   1.402       .  A
C1526      H1531   1.083       .  S
C1527      C1528   1.415       .  A
C1528      C1529   1.517       .  S
C1529      F1533   1.382       .  S
C1529      F1534   1.384       .  S
C1529      F1535   1.383       .  S
C1532      F1536   1.382       .  S
C1532      F1537   1.384       .  S
C1532      F1538   1.385       .  S
C1539      C1540   1.407       .  A
C1539      C1544   1.410       .  A
C1539      H1546   1.083       .  S
C1540      C1541   1.422       .  A
C1541      C1542   1.413       .  A
C1541      C1548   1.518       .  S
C1542      C1543   1.406       .  A
C1542      H1547   1.083       .  S
C1543      C1544   1.421       .  A
C1544      C1545   1.521       .  S
C1545      F1549   1.385       .  S
C1545      F1550   1.383       .  S
C1545      F1551   1.383       .  S
C1548      F1552   1.382       .  S
C1548      F1553   1.383       .  S
C1548      F1554   1.385       .  S
C1555      C1556   1.405       .  A
C1555      C1560   1.404       .  A
C1555      H1562   1.085       .  S
C1556      C1557   1.425       .  A
C1557      C1558   1.410       .  A
C1557      C1564   1.516       .  S
C1558      C1559   1.400       .  A
C1558      H1563   1.083       .  S
C1559      C1560   1.415       .  A
C1560      C1561   1.516       .  S
C1561      F1565   1.383       .  S
C1561      F1566   1.383   1_455  S
C1561      F1567   1.383   1_455  S
C1564      F1568   1.381       .  S
C1564      F1569   1.382       .  S
C1564      F1570   1.385       .  S
C1571      C1572   1.400       .  A
C1571      C1576   1.401       .  A
C1571      H1578   1.085       .  S
C1572      C1573   1.412       .  A
C1573      C1574   1.408       .  A
C1573      C1580   1.516       .  S
C1574      C1575   1.405       .  A
C1574      H1579   1.083       .  S
C1575      C1576   1.418       .  A
C1576      C1577   1.519       .  S
C1577      F1581   1.380       .  S
C1577      F1582   1.382       .  S
C1577      F1583   1.386       .  S
C1580      F1584   1.383       .  S
C1580      F1585   1.383       .  S
C1580      F1586   1.384       .  S
C1587      C1588   1.404       .  A
C1587      C1592   1.414       .  A
C1587      H1594   1.083       .  S
C1588      C1589   1.416       .  A
C1589      C1590   1.404       .  A
C1589      C1596   1.522       .  S
C1590      C1591   1.408       .  A
C1590      H1595   1.083       .  S
C1591      C1592   1.421       .  A
C1592      C1593   1.516       .  S
C1593      F1597   1.384       .  S
C1593      F1598   1.382       .  S
C1593      F1599   1.383       .  S
C1596      F1600   1.382       .  S
C1596      F1601   1.384       .  S
C1596      F1602   1.385       .  S
C1603      C1604   1.405       .  A
C1603      C1608   1.412       .  A
C1603      H1610   1.083       .  S
C1604      C1605   1.416       .  A
C1605      C1606   1.407       .  A
C1605      C1612   1.518       .  S
C1606      C1607   1.403       .  A
C1606      H1611   1.083       .  S
C1607      C1608   1.416       .  A
C1608      C1609   1.517       .  S
C1609      F1613   1.384       .  S
C1609      F1614   1.381       .  S
C1609      F1615   1.384       .  S
C1612      F1616   1.382       .  S
C1612      F1617   1.385       .  S
C1612      F1618   1.383       .  S
C1619      C1620   1.403       .  A
C1619      C1624   1.404       .  A
C1619      H1626   1.083       .  S
C1620      C1621   1.417       .  A
C1621      C1622   1.412       .  A
C1621      C1628   1.518       .  S
C1622      C1623   1.406       .  A
C1622      H1627   1.083       .  S
C1623      C1624   1.417       .  A
C1624      C1625   1.521       .  S
C1625      F1629   1.384       .  S
C1625      F1630   1.381       .  S
C1625      F1631   1.383       .  S
C1628      F1632   1.383       .  S
C1628      F1633   1.382       .  S
C1628      F1634   1.384       .  S
C1635      C1636   1.402       .  A
C1635      C1640   1.415       .  A
C1635      H1642   1.083       .  S
C1636      C1637   1.416       .  A
C1637      C1638   1.407       .  A
C1637      C1644   1.519       .  S
C1638      C1639   1.408       .  A
C1638      H1643   1.082       .  S
C1639      C1640   1.428       .  A
C1640      C1641   1.520       .  S
C1641      F1645   1.385       .  S
C1641      F1646   1.383       .  S
C1641      F1647   1.384       .  S
C1644      F1648   1.382       .  S
C1644      F1649   1.384       .  S
C1644      F1650   1.385       .  S
C1651      C1652   1.404       .  A
C1651      C1656   1.408       .  A
C1651      H1658   1.085       .  S
C1652      C1653   1.422       .  A
C1653      C1654   1.407       .  A
C1653      C1660   1.516       .  S
C1654      C1655   1.400       .  A
C1654      H1659   1.083       .  S
C1655      C1656   1.416       .  A
C1656      C1657   1.515       .  S
C1657      F1661   1.384       .  S
C1657      F1662   1.382       .  S
C1657      F1663   1.383       .  S
C1660      F1664   1.382       .  S
C1660      F1665   1.380       .  S
C1660      F1666   1.385       .  S
C1667      C1668   1.405       .  A
C1667      C1672   1.410       .  A
C1667      H1674   1.083       .  S
C1668      C1669   1.420       .  A
C1669      C1670   1.402       .  A
C1669      C1676   1.519       .  S
C1670      C1671   1.400       .  A
C1670      H1675   1.085   1_556  S
C1671      C1672   1.414       .  A
C1672      C1673   1.516       .  S
C1673      F1677   1.384       .  S
C1673      F1678   1.382       .  S
C1673      F1679   1.383   1_556  S
C1676      F1680   1.378       .  S
C1676      F1681   1.384   1_556  S
C1676      F1682   1.382       .  S
C1683      C1684   1.406       .  A
C1683      C1688   1.414       .  A
C1683      H1690   1.083       .  S
C1684      C1685   1.421       .  A
C1685      C1686   1.405       .  A
C1685      C1692   1.522   1_556  S
C1686      C1687   1.405       .  A
C1686      H1691   1.083   1_556  S
C1687      C1688   1.419       .  A
C1688      C1689   1.517       .  S
C1689      F1693   1.384       .  S
C1689      F1694   1.383       .  S
C1689      F1695   1.383       .  S
C1692      F1696   1.382       .  S
C1692      F1697   1.383       .  S
C1692      F1698   1.385       .  S
C1699      C1700   1.404       .  A
C1699      C1704   1.404       .  A
C1699      H1706   1.080       .  S
C1700      C1701   1.422       .  A
C1701      C1702   1.408       .  A
C1701      C1708   1.514       .  S
C1702      C1703   1.402       .  A
C1702      H1707   1.085       .  S
C1703      C1704   1.415       .  A
C1704      C1705   1.521       .  S
C1705      F1709   1.385       .  S
C1705      F1710   1.382       .  S
C1705      F1711   1.382   1_556  S
C1708      F1712   1.380       .  S
C1708      F1713   1.383       .  S
C1708      F1714   1.384       .  S
C1715      C1716   1.404       .  A
C1715      C1720   1.411       .  A
C1715      H1722   1.083       .  S
C1716      C1717   1.422       .  A
C1717      C1718   1.410       .  A
C1717      C1724   1.518       .  S
C1718      C1719   1.401       .  A
C1718      H1723   1.083       .  S
C1719      C1720   1.414       .  A
C1720      C1721   1.515       .  S
C1721      F1725   1.382   1_455  S
C1721      F1726   1.384       .  S
C1721      F1727   1.383       .  S
C1724      F1728   1.381       .  S
C1724      F1729   1.384       .  S
C1724      F1730   1.385       .  S
C1731      C1732   1.408       .  A
C1731      C1736   1.413       .  A
C1731      H1738   1.083       .  S
C1732      C1733   1.422       .  A
C1733      C1734   1.413       .  A
C1733      C1740   1.515       .  S
C1734      C1735   1.405       .  A
C1734      H1739   1.083       .  S
C1735      C1736   1.422       .  A
C1736      C1737   1.521   1_455  S
C1737      F1741   1.384       .  S
C1737      F1742   1.383   1_556  S
C1737      F1743   1.383       .  S
C1740      F1744   1.381       .  S
C1740      F1745   1.383       .  S
C1740      F1746   1.385       .  S
