geometry optimzed in LAMMPS
_audit_creation_date              2020-12-01 
_audit_creation_method            'lammps2cif' 
_symmetry_space_group_name_H-M    'P1' 
_symmetry_Int_Tables_number       1 
_symmetry_cell_setting            triclinic 
loop_ 
_symmetry_equiv_pos_as_xyz 
  x,y,z 
_cell_length_a                    41.68180332 
_cell_length_b                    41.08979682538501 
_cell_length_c                    38.669759304384996 
_cell_angle_alpha                 90.47812141618219 
_cell_angle_beta                  89.35319105761572 
_cell_angle_gamma                 89.07768716954678 
loop_ 
_atom_site_label 
_atom_site_type_symbol 
_atom_site_fract_x 
_atom_site_fract_y 
_atom_site_fract_z 
_atom_site_charge 
O1          O  0.40695463  0.02556192  0.62104128    -0.74300
O2          O  0.31880811  0.02065154  0.65630469    -0.74400
O3          O  0.37869606  0.03155285  0.68420519    -0.74400
O4          O  0.34788554  0.01985214  0.59318206    -0.74500
O5          O  0.34954163  0.46077947  0.60080696    -0.74400
O6          O  0.38895996  0.97855499  0.68970064    -0.74400
O7          O  0.32444850  0.46276413  0.66650622    -0.74400
O8          O  0.40761102  0.46409338  0.62915923    -0.74400
Ni9        Ni  0.36271888  0.02638579  0.63871458     1.25400
Ni10       Ni  0.36653384  0.46293351  0.64807988     1.25400
C11         C  0.42248660  0.99832151  0.61659405     0.87800
C12         C  0.30849973  0.99224136  0.66477127     0.87800
C13         C  0.39136260  0.00816192  0.70096432     0.87800
C14         C  0.34496613  0.48683054  0.58273955     0.88000
O15         O  0.47436766  0.04638678  0.89401625    -0.74300
O16         O  0.46251383  0.13757655  0.86629746    -0.74400
O17         O  0.44784552  0.07671070  0.83797727    -0.74400
O18         O  0.48237002  0.10593105  0.92191031    -0.74500
O19         O  0.53176906  0.10683050  0.89942215    -0.74400
O20         O  0.49578608  0.07281900  0.81250964    -0.74400
O21         O  0.50997207  0.13364095  0.83981070    -0.74400
O22         O  0.52279859  0.04871330  0.86986552    -0.74400
Ni23       Ni  0.46478129  0.09165658  0.88047385     1.25400
Ni24       Ni  0.51664617  0.09064163  0.85425715     1.25400
C25         C  0.50226706  0.03335626  0.88721301     0.87800
C26         C  0.48672510  0.15111090  0.85118457     0.87800
C27         C  0.46515175  0.06789984  0.81207135     0.87800
C28         C  0.51203729  0.11111791  0.92526884     0.88000
O29         O  0.06777998  0.44512512  0.62258747    -0.74300
O30         O  0.15671227  0.43845937  0.65493383    -0.74400
O31         O  0.09671711  0.42475440  0.68182020    -0.74400
O32         O  0.12701279  0.45238213  0.59566279    -0.74500
O33         O  0.12509360  0.50435137  0.61206835    -0.74400
O34         O  0.09128423  0.47505300  0.70257827    -0.74400
O35         O  0.15106402  0.48917308  0.67471332    -0.74400
O36         O  0.06745335  0.49619437  0.64187285    -0.74400
Ni37       Ni  0.11217104  0.43825535  0.63845613     1.25400
Ni38       Ni  0.10880421  0.49296078  0.65872986     1.25400
C39         C  0.05365279  0.47328284  0.62619697     0.87800
C40         C  0.16886706  0.46447087  0.66825134     0.87800
C41         C  0.08742819  0.44396168  0.70599565     0.87800
C42         C  0.13055067  0.48211297  0.58858293     0.88000
O43         O  0.05288137  0.38552067  0.89862809    -0.74300
O44         O  0.03981884  0.29739395  0.86385491    -0.74400
O45         O  0.05298131  0.35736760  0.83538475    -0.74400
O46         O  0.04469636  0.32625134  0.92681934    -0.74500
O47         O  0.99168782  0.33324571  0.92574479    -0.74400
O48         O  0.00118978  0.37122139  0.83358716    -0.74400
O49         O  0.98775927  0.30955409  0.85990417    -0.74400
O50         O  0.99970552  0.39213397  0.89936700    -0.74400
Ni51       Ni  0.04949109  0.34108019  0.88098566     1.27000
Ni52       Ni  0.99316975  0.35156554  0.87925815     1.25400
C53         C  0.02743392  0.40298294  0.90505238     0.87800
C54         C  0.01069873  0.28877976  0.85786688     0.87800
C55         C  0.02987956  0.37208415  0.82051127     0.87800
C56         C  0.01760166  0.32577986  0.94220412     0.88000
O57         O  0.06006857  0.05609001  0.11454842    -0.74300
O58         O  0.04566469  0.14496357  0.14815508    -0.74400
O59         O  0.06141178  0.08593859  0.17675776    -0.74400
O60         O  0.04954100  0.11441774  0.08540564    -0.74500
O61         O  0.99669715  0.10767271  0.08950109    -0.74400
O62         O  0.01057973  0.07162465  0.18265892    -0.74400
O63         O  0.99416535  0.13287712  0.15557408    -0.74400
O64         O  0.00706720  0.04959557  0.11692793    -0.74400
Ni65       Ni  0.05597847  0.10095344  0.13122738     1.25400
Ni66       Ni  0.00014179  0.09051661  0.13670155     1.25400
C67         C  0.03496490  0.03861576  0.10999677     0.87800
C68         C  0.01658127  0.15352135  0.15635627     0.87800
C69         C  0.03994119  0.07080751  0.19355016     0.87800
C70         C  0.02215931  0.11389322  0.07139286     0.88000
O71         O  0.07328438  0.02123759  0.39225711    -0.74300
O72         O  0.16416534  0.01944271  0.36415175    -0.74400
O73         O  0.10549293  0.02922478  0.33157685    -0.74400
O74         O  0.13039260  0.01710528  0.42445386    -0.74500
O75         O  0.12717249  0.46745730  0.42096078    -0.74400
O76         O  0.10070905  0.97590175  0.32293543    -0.74400
O77         O  0.15548257  0.47034521  0.35701184    -0.74400
O78         O  0.07077024  0.47148815  0.38930977    -0.74400
Ni79       Ni  0.11858877  0.02376592  0.37808592     1.25400
Ni80       Ni  0.11267488  0.47043622  0.37280580     1.25400
C81         C  0.05926366  0.99340854  0.39384347     0.87800
C82         C  0.17677945  0.99113341  0.35705353     0.87800
C83         C  0.09656885  0.00557748  0.31268871     0.87800
C84         C  0.13061380  0.49330240  0.43987773     0.88000
O85         O  0.41021797  0.44290209  0.39618192    -0.74300
O86         O  0.32249323  0.44113835  0.36287777    -0.74400
O87         O  0.38295209  0.42817275  0.33500893    -0.74400
O88         O  0.35077900  0.45067004  0.42392285    -0.74500
O89         O  0.35154536  0.50352797  0.41213968    -0.74400
O90         O  0.38926348  0.48014972  0.32116097    -0.74400
O91         O  0.32760260  0.49284516  0.34748296    -0.74400
O92         O  0.41048525  0.49584688  0.38445212    -0.74400
Ni93       Ni  0.36643148  0.43880635  0.37968787     1.25400
Ni94       Ni  0.36958343  0.49493881  0.36553983     1.25400
C95         C  0.42441878  0.47060193  0.39599205     0.87800
C96         C  0.31013578  0.46803802  0.35165811     0.87800
C97         C  0.39356600  0.44947253  0.31425134     0.87800
C98         C  0.34641150  0.48006633  0.43357842     0.88000
O99         O  0.47325482  0.39571691  0.12346290    -0.74300
O100        O  0.45955197  0.30596798  0.15430864    -0.74400
O101        O  0.44668338  0.36833094  0.18118575    -0.74400
O102        O  0.47963692  0.33517750  0.09700022    -0.74500
O103        O  0.52901954  0.33073582  0.11781239    -0.74400
O104        O  0.49515848  0.37121293  0.20413573    -0.74400
O105        O  0.50694272  0.30836037  0.17973964    -0.74400
O106        O  0.52231122  0.39064835  0.14461185    -0.74400
Ni107      Ni  0.46279332  0.35136564  0.13860825     1.25400
Ni108      Ni  0.51494977  0.35002127  0.16266664     1.25400
C109        C  0.50170478  0.40704943  0.12828286     0.87800
C110        C  0.48335938  0.29174767  0.16965618     0.87800
C111        C  0.46462597  0.37769438  0.20566340     0.87800
C112        C  0.50893732  0.32736454  0.09272128     0.88000
C113        C  0.41129572  0.43640696  0.28290866    -0.05400
C114        C  0.44457937  0.44109035  0.27802647    -0.32800
C115        C  0.46286541  0.42177734  0.25395462     0.36400
C116        C  0.44809698  0.39698854  0.23442529    -0.05700
C117        C  0.41473191  0.39318113  0.23905655    -0.32700
C118        C  0.39670068  0.41220649  0.26278883     0.36300
H119        H  0.45668906  0.45890012  0.29379524     0.16700
O120        O  0.49477892  0.42807292  0.24901845    -0.60200
H121        H  0.40222424  0.37498866  0.22417579     0.16700
O122        O  0.36442171  0.40681123  0.26631311    -0.60300
H123        H  0.36274197  0.38712119  0.28084046     0.43700
H124        H  0.50604312  0.41560986  0.26720536     0.43700
C125        C  0.45805163  0.47477458  0.40640447    -0.05400
C126        C  0.46959987  0.50674404  0.41089230    -0.32800
C127        C  0.00324639  0.01468169  0.40818652     0.36400
C128        C  0.02277481  0.49296185  0.41070111    -0.05700
C129        C  0.01241912  0.46076048  0.41661803    -0.32700
C130        C  0.47999944  0.44870836  0.40522021     0.36300
H131        H  0.45301257  0.52726710  0.41288465     0.16700
O132        O  0.01328986  0.04629316  0.40903210    -0.60200
H133        H  0.02963931  0.44082516  0.41840806     0.16700
O134        O  0.47002986  0.41735310  0.40048822    -0.60300
H135        H  0.96656765  0.41673795  0.44222855     0.43700
H136        H  0.50850964  0.05379953  0.38306194     0.43700
C137        C  0.27473566  0.47263117  0.34758639    -0.05400
C138        C  0.25412035  0.45265312  0.36630808    -0.32800
C139        C  0.22145953  0.46052568  0.37007079     0.36400
C140        C  0.20819329  0.48887078  0.35471844    -0.05700
C141        C  0.23184259  0.00097912  0.33093052    -0.32700
C142        C  0.26137767  0.50054904  0.33122595     0.36300
H143        H  0.26360517  0.43171892  0.37991036     0.16700
O144        O  0.20297319  0.44132531  0.39096164    -0.60200
H145        H  0.22209780  0.02080729  0.31580735     0.16700
O146        O  0.28309945  0.00864199  0.30397727    -0.60300
H147        H  0.28186166  0.99659880  0.28171379     0.43700
H148        H  0.19860627  0.42157886  0.37697926     0.43700
C149        C  0.51291853  0.43918128  0.11602842    -0.05400
C150        C  0.49532811  0.45761623  0.09236251    -0.32800
C151        C  0.51000642  0.98843937  0.08758817     0.36400
C152        C  0.03644371  0.00370055  0.10266394    -0.05700
C153        C  0.05465363  0.48356199  0.12132019    -0.32700
C154        C  0.04684085  0.45145065  0.12844632     0.36300
H155        H  0.47349610  0.44817577  0.08146016     0.16700
O156        O  0.49260998  0.00609611  0.06410544    -0.60200
H157        H  0.07559201  0.49389836  0.13333165     0.16700
O158        O  0.06776826  0.43372853  0.14830291    -0.60300
H159        H  0.06248767  0.43992811  0.17258006     0.43700
H160        H  0.47156005  0.01077249  0.07546057     0.43700
C161        C  0.48755339  0.25549770  0.17247248    -0.05400
C162        C  0.01677291  0.24107889  0.18963905    -0.32800
C163        C  0.02602013  0.20834983  0.18466925     0.36400
C164        C  0.00711401  0.18785552  0.16451123    -0.05700
C165        C  0.47383048  0.20001689  0.15619878    -0.32700
C166        C  0.46521283  0.23320880  0.15976457     0.36300
H167        H  0.03260504  0.25642528  0.20437303     0.16700
O168        O  0.05393761  0.19693886  0.19896849    -0.60200
H169        H  0.45640167  0.18355852  0.14552000     0.16700
O170        O  0.43522997  0.24356592  0.15005960    -0.60300
H171        H  0.43602547  0.24425272  0.12443115     0.43700
H172        H  0.04767228  0.18908394  0.22222599     0.43700
C173        C  0.08141410  0.01468036  0.27906678    -0.05400
C174        C  0.04763481  0.01634337  0.27542273    -0.32800
C175        C  0.03302036  0.03409520  0.24806422     0.36400
C176        C  0.05218054  0.05101218  0.22391034    -0.05700
C177        C  0.08590220  0.04815413  0.22759007    -0.32700
C178        C  0.10021091  0.03069803  0.25444027     0.36300
H179        H  0.03247879  0.00528642  0.29484555     0.16700
O180        O  0.00022798  0.03534942  0.24591705    -0.60200
H181        H  0.10194614  0.06008891  0.20970062     0.16700
O182        O  0.13294148  0.03124483  0.25765990    -0.60300
H183        H  0.14105408  0.01206275  0.24428994     0.43700
H184        H  0.99345818  0.05453669  0.26008952     0.43700
C185        C  0.01721126  0.31879371  0.98005715    -0.05400
C186        C  0.98824245  0.31208121  0.99669046    -0.32800
C187        C  0.49338217  0.30387491  0.03543538     0.36400
C188        C  0.51768427  0.31669190  0.05689601    -0.05700
C189        C  0.54624474  0.32677021  0.04128980    -0.32700
C190        C  0.04519233  0.32177026  0.00059752     0.36300
H191        H  0.96670518  0.30869577  0.98173030     0.16700
O192        O  0.46573565  0.29173777  0.04951838    -0.60200
H193        H  0.56523300  0.33653268  0.05700495     0.16700
O194        O  0.07475132  0.32616926  0.98553641    -0.60300
H195        H  0.07745105  0.35007983  0.98464413     0.43700
H196        H  0.47091240  0.26867628  0.05478752     0.43700
C197        C  0.13534369  0.49227729  0.47810843    -0.05400
C198        C  0.14911686  0.46502260  0.49380047    -0.32800
C199        C  0.15118080  0.46327368  0.52994060     0.36400
C200        C  0.13837152  0.48871623  0.55154093    -0.05700
C201        C  0.12656947  0.51685197  0.53579763    -0.32700
C202        C  0.12486782  0.51878893  0.49961166     0.36300
H203        H  0.15780676  0.44471842  0.47806922     0.16700
O204        O  0.16413434  0.43549243  0.54390753    -0.60200
H205        H  0.11633095  0.53644341  0.55150070     0.16700
O206        O  0.11550647  0.04276910  0.48392827    -0.60300
H207        H  0.09195567  0.03980899  0.48307487     0.43700
H208        H  0.18594265  0.44153676  0.55136167     0.43700
C209        C  0.03872645  0.39082409  0.78877896    -0.05400
C210        C  0.03601278  0.42519680  0.78780371    -0.32800
C211        C  0.05229060  0.44353413  0.76208388     0.36400
C212        C  0.07151714  0.42760504  0.73654198    -0.05700
C213        C  0.07379854  0.39326064  0.73798725    -0.32700
C214        C  0.05807858  0.37526246  0.76344407     0.36300
H215        H  0.02256713  0.43798355  0.80799770     0.16700
O216        O  0.04924720  0.47677476  0.76232111    -0.60200
H217        H  0.08830648  0.37971172  0.71925103     0.16700
O218        O  0.06219929  0.34204150  0.76362259    -0.60300
H219        H  0.08374072  0.33811367  0.77355775     0.43700
H220        H  0.06643440  0.48447675  0.77777008     0.43700
C221        C  0.52157150  0.11968742  0.96098464    -0.05400
C222        C  0.04353943  0.10089412  0.97630647    -0.32800
C223        C  0.04399640  0.09893582  0.01255422     0.36400
C224        C  0.02195600  0.11749930  0.03317889    -0.05700
C225        C  0.50032566  0.13724373  0.01776623    -0.32700
C226        C  0.50051809  0.13953478  0.98149509     0.36300
H227        H  0.05836185  0.08411706  0.96108246     0.16700
O228        O  0.06429034  0.07665875  0.02752764    -0.60200
H229        H  0.48339120  0.15185930  0.03292697     0.16700
O230        O  0.47906392  0.16033032  0.96598416    -0.60300
H231        H  0.45771996  0.15038386  0.96919031     0.43700
H232        H  0.08534880  0.08749472  0.02865065     0.43700
C233        C  0.51299333  0.00047890  0.89855248    -0.05400
C234        C  0.49328437  0.48417687  0.92654933    -0.32800
C235        C  0.50288638  0.45225108  0.93456001     0.36400
C236        C  0.02817773  0.43762369  0.91448163    -0.05700
C237        C  0.04890788  0.45688810  0.89558184    -0.32700
C238        C  0.04389696  0.98923230  0.88801321     0.36300
H239        H  0.47071478  0.49379502  0.93673425     0.16700
O240        O  0.48356677  0.43382714  0.95541848    -0.60200
H241        H  0.06994976  0.44612137  0.88300120     0.16700
O242        O  0.06228989  0.00527758  0.86415614    -0.60300
H243        H  0.05471790  0.99764514  0.84128844     0.43700
H244        H  0.46385006  0.42991427  0.94197181     0.43700
C245        C  0.49143722  0.18725366  0.84963081    -0.05400
C246        C  0.52124915  0.19886073  0.83702946    -0.32800
C247        C  0.53001568  0.23156887  0.84068701     0.36400
C248        C  0.00198500  0.25420588  0.85121502    -0.05700
C249        C  0.97196200  0.24291034  0.86313187    -0.32700
C250        C  0.96402590  0.20974105  0.86123944     0.36300
H251        H  0.53879068  0.18223465  0.82546613     0.16700
O252        O  0.55984019  0.24096203  0.82971527    -0.60200
H253        H  0.95513478  0.25961660  0.87578688     0.16700
O254        O  0.93567079  0.19971210  0.87560390    -0.60300
H255        H  0.94043577  0.19579459  0.90031312     0.43700
H256        H  0.55703055  0.24764457  0.80533973     0.43700
C257        C  0.33832191  0.48629646  0.54473981    -0.05400
C258        C  0.34263889  0.01758281  0.52124595    -0.32800
C259        C  0.34373421  0.51422549  0.48877832     0.36400
C260        C  0.33775323  0.48504164  0.47098950    -0.05700
C261        C  0.32869441  0.45766348  0.49068047    -0.32700
C262        C  0.32909281  0.45809390  0.52700899     0.36300
H263        H  0.34921991  0.04052956  0.53295004     0.16700
O264        O  0.34957533  0.04241491  0.46577591    -0.60200
H265        H  0.32300548  0.43497358  0.47785743     0.16700
O266        O  0.32179151  0.43035416  0.54469677    -0.60300
H267        H  0.29863991  0.43262029  0.55060308     0.43700
H268        H  0.37334169  0.04245303  0.46424908     0.43700
C269        C  0.02083464  0.48159263  0.61386083    -0.05400
C270        C  0.00899556  0.51374082  0.61992421    -0.32800
C271        C  0.97837602  0.01466108  0.61720685     0.36400
C272        C  0.45571530  0.48664818  0.61185559    -0.05700
C273        C  0.46792294  0.45484435  0.60469485    -0.32700
C274        C  0.50067034  0.44731465  0.60752731     0.36300
H275        H  0.02702797  0.02725432  0.62406675     0.16700
O276        O  0.96777303  0.04574785  0.62465667    -0.60200
H277        H  0.45173624  0.43494228  0.60006879     0.16700
O278        O  0.51102386  0.41555081  0.60461756    -0.60300
H279        H  0.50693108  0.40590571  0.62765175     0.43700
H280        H  0.96664275  0.04707915  0.65027255     0.43700
C281        C  0.20408086  0.46887854  0.67371834    -0.05400
C282        C  0.21569456  0.50087786  0.67830085    -0.32800
C283        C  0.25056534  0.01025512  0.67674515     0.36400
C284        C  0.27114023  0.48208490  0.67291615    -0.05700
C285        C  0.25960395  0.44984376  0.67090966    -0.32700
C286        C  0.22661671  0.44320996  0.67118231     0.36300
H287        H  0.20067906  0.02252695  0.67985592     0.16700
O288        O  0.25929011  0.04221326  0.67926470    -0.60200
H289        H  0.27619107  0.42948227  0.66751270     0.16700
O290        O  0.21685113  0.41167108  0.66763507    -0.60300
H291        H  0.21215376  0.40434242  0.69151095     0.43700
H292        H  0.26246061  0.04620562  0.70431757     0.43700
C293        C  0.40969115  0.01764957  0.73263243    -0.05400
C294        C  0.44297365  0.01120264  0.73540807    -0.32800
C295        C  0.46191906  0.02779495  0.76016624     0.36400
C296        C  0.44775850  0.05130022  0.78280851    -0.05700
C297        C  0.41434921  0.05675837  0.78028994    -0.32700
C298        C  0.39567901  0.04047773  0.75586659     0.36300
H299        H  0.45462232  0.99444178  0.71730606     0.16700
O300        O  0.49398769  0.02038026  0.76238015    -0.60200
H301        H  0.40233749  0.07424710  0.79731812     0.16700
O302        O  0.36360059  0.04819567  0.75397111    -0.60300
H303        H  0.35255488  0.03086166  0.76697858     0.43700
H304        H  0.50433407  0.03256549  0.74336459     0.43700
O305        O  0.40668721  0.51812547  0.62592524    -0.74300
O306        O  0.31753022  0.51593940  0.65872427    -0.74400
O307        O  0.37690462  0.52500995  0.68818715    -0.74400
O308        O  0.34814658  0.51472157  0.59659190    -0.74500
O309        O  0.35075082  0.96599249  0.59816123    -0.74400
O310        O  0.38518143  0.47171499  0.69402620    -0.74400
O311        O  0.32763946  0.96780802  0.66455711    -0.74400
O312        O  0.40962048  0.97151592  0.62405039    -0.74400
Ni313      Ni  0.36202469  0.52041542  0.64239331     1.25400
Ni314      Ni  0.36916045  0.96908619  0.64458430     1.25400
C315        C  0.42148892  0.49039757  0.62196442     0.87800
C316        C  0.30612322  0.48779715  0.66654300     0.87800
C317        C  0.38822542  0.50125741  0.70534472     0.87800
C318        C  0.34500106  0.99163942  0.57988030     0.88000
O319        O  0.47184774  0.54709916  0.89755498    -0.74300
O320        O  0.45661414  0.63647997  0.86554167    -0.74400
O321        O  0.44315619  0.57400967  0.84068270    -0.74400
O322        O  0.47883988  0.60792748  0.92216878    -0.74500
O323        O  0.52784743  0.60788169  0.89862557    -0.74400
O324        O  0.49051717  0.57114690  0.81382677    -0.74400
O325        O  0.50398685  0.63291686  0.83881697    -0.74400
O326        O  0.51919520  0.54899836  0.87093879    -0.74400
Ni327      Ni  0.46063315  0.59136288  0.88194802     1.25400
Ni328      Ni  0.51190674  0.59043051  0.85434987     1.25400
C329        C  0.49979163  0.53433544  0.89038949     0.87800
C330        C  0.48020451  0.65008975  0.84942030     0.87800
C331        C  0.46012801  0.56502731  0.81457114     0.87800
C332        C  0.50863769  0.61282862  0.92480382     0.88000
O333        O  0.07116609  0.94028645  0.62485583    -0.74300
O334        O  0.16076511  0.93779719  0.65540505    -0.74400
O335        O  0.10167986  0.92332461  0.68409225    -0.74400
O336        O  0.12956989  0.94842424  0.59593488    -0.74500
O337        O  0.12688162  0.00085822  0.61030639    -0.74400
O338        O  0.09421337  0.97421727  0.70235922    -0.74400
O339        O  0.15364042  0.98885801  0.67357387    -0.74400
O340        O  0.06983653  0.99229119  0.64106628    -0.74400
Ni341      Ni  0.11601246  0.93552948  0.63982675     1.25400
Ni342      Ni  0.11124064  0.99086233  0.65766323     1.25400
C343        C  0.05634453  0.96817269  0.62729315     0.87800
C344        C  0.17216065  0.96453749  0.66786981     0.87800
C345        C  0.09137166  0.94317432  0.70721439     0.87800
C346        C  0.13222781  0.97796146  0.58749099     0.88000
O347        O  0.05923209  0.88683753  0.90185606    -0.74300
O348        O  0.04591045  0.79856292  0.86748305    -0.74400
O349        O  0.05846146  0.85864530  0.83867634    -0.74400
O350        O  0.05150434  0.82763543  0.93027533    -0.74500
O351        O  0.99837807  0.83410275  0.92961965    -0.74400
O352        O  0.00668596  0.87262264  0.83766459    -0.74400
O353        O  0.99385741  0.81081680  0.86383110    -0.74400
O354        O  0.00603762  0.89321388  0.90368018    -0.74400
Ni355      Ni  0.05569320  0.84237568  0.88435476     1.27000
Ni356      Ni  0.99933314  0.85273691  0.88334815     1.25400
C357        C  0.03382669  0.90419436  0.90876891     0.87800
C358        C  0.01673216  0.78996184  0.86174819     0.87800
C359        C  0.03516167  0.87331656  0.82405357     0.87800
C360        C  0.02447852  0.82683986  0.94578017     0.88000
O361        O  0.05731836  0.55542822  0.11689914    -0.74300
O362        O  0.04367241  0.64520637  0.14764455    -0.74400
O363        O  0.05881259  0.58699452  0.17830322    -0.74400
O364        O  0.04716000  0.61293073  0.08610233    -0.74500
O365        O  0.99426318  0.60667580  0.09042928    -0.74400
O366        O  0.00759950  0.57408042  0.18485261    -0.74400
O367        O  0.99197511  0.63421852  0.15530865    -0.74400
O368        O  0.00433438  0.54937751  0.12031453    -0.74400
Ni369      Ni  0.05354813  0.60069907  0.13227317     1.25400
Ni370      Ni  0.99756638  0.59114936  0.13823767     1.25400
C371        C  0.03206306  0.53807856  0.11292224     0.87800
C372        C  0.01472279  0.65451350  0.15549494     0.87800
C373        C  0.03694304  0.57300295  0.19564430     0.87800
C374        C  0.01974179  0.61243662  0.07218273     0.88000
O375        O  0.07029303  0.52525290  0.39653753    -0.74300
O376        O  0.16035470  0.52366631  0.36540957    -0.74400
O377        O  0.10075965  0.53325320  0.33469441    -0.74400
O378        O  0.12827839  0.52134227  0.42652105    -0.74500
O379        O  0.12979231  0.96326591  0.41849103    -0.74400
O380        O  0.09643143  0.47984058  0.32617392    -0.74400
O381        O  0.15932342  0.96617894  0.35511087    -0.74400
O382        O  0.07418195  0.96747647  0.38533897    -0.74400
Ni383      Ni  0.11514579  0.52788170  0.38071295     1.25400
Ni384      Ni  0.11625115  0.96637217  0.36993140     1.25400
C385        C  0.05633037  0.49743143  0.39882507     0.87800
C386        C  0.17295578  0.49533868  0.35838461     0.87800
C387        C  0.09189590  0.50947106  0.31600817     0.87800
C388        C  0.13266488  0.98900298  0.43773878     0.88000
O389        O  0.41221849  0.94185960  0.40041224    -0.74300
O390        O  0.32603613  0.93512539  0.36274329    -0.74400
O391        O  0.38886370  0.92243933  0.33884578    -0.74400
O392        O  0.35129246  0.94895233  0.42421055    -0.74500
O393        O  0.35117185  0.00101573  0.40897567    -0.74400
O394        O  0.39331805  0.97359567  0.32139239    -0.74400
O395        O  0.33033032  0.98592396  0.34405197    -0.74400
O396        O  0.41121918  0.99378160  0.38453995    -0.74400
Ni397      Ni  0.36941328  0.93513347  0.38173173     1.25400
Ni398      Ni  0.37132186  0.99032048  0.36379014     1.25400
C399        C  0.42536472  0.97009240  0.39901783     0.87800
C400        C  0.31326540  0.96114287  0.34977332     0.87800
C401        C  0.40024659  0.94288821  0.31753401     0.87800
C402        C  0.34589945  0.97871022  0.43174813     0.88000
O403        O  0.47791799  0.89564207  0.12795917    -0.74300
O404        O  0.46380549  0.80574618  0.15771952    -0.74400
O405        O  0.45518090  0.86808009  0.18665295    -0.74400
O406        O  0.48004749  0.83577339  0.09907728    -0.74500
O407        O  0.53102438  0.82965005  0.11407184    -0.74400
O408        O  0.50552387  0.86737477  0.20516044    -0.74400
O409        O  0.51373590  0.80546537  0.17716700    -0.74400
O410        O  0.52852016  0.88867026  0.14420281    -0.74400
Ni411      Ni  0.46728951  0.85133791  0.14258891     1.25400
Ni412      Ni  0.52140503  0.84744795  0.16103736     1.25400
C413        C  0.50681750  0.90628057  0.13112401     0.87800
C414        C  0.48832179  0.79027275  0.17031149     0.87800
C415        C  0.47556769  0.87580765  0.20936695     0.87800
C416        C  0.50864054  0.82768412  0.09111202     0.88000
C417        C  0.42319942  0.92937669  0.29020056    -0.05400
C418        C  0.44275053  0.90196727  0.29833052    -0.32800
C419        C  0.46223249  0.88574285  0.27321807     0.36400
C420        C  0.46265554  0.89650530  0.23883930    -0.05700
C421        C  0.44435766  0.92481372  0.23102235    -0.32700
C422        C  0.42519626  0.94134504  0.25625374     0.36300
H423        H  0.44232772  0.89241850  0.32436059     0.16700
O424        O  0.47937460  0.85841395  0.28224036    -0.60200
H425        H  0.44393548  0.93347332  0.20463320     0.16700
O426        O  0.40744613  0.96817052  0.24690337    -0.60300
H427        H  0.38601862  0.95975537  0.24096396     0.43700
H428        H  0.46429301  0.84015943  0.27955523     0.43700
C429        C  0.45804110  0.97684832  0.41149060    -0.05400
C430        C  0.46815061  0.00960451  0.41230200    -0.32800
C431        C  0.99984215  0.51818394  0.41056362     0.36400
C432        C  0.02520215  0.98882590  0.40371783    -0.05700
C433        C  0.01370218  0.95653634  0.40453936    -0.32700
C434        C  0.48090275  0.95201622  0.41606209     0.36300
H435        H  0.45082623  0.02943656  0.41043193     0.16700
O436        O  0.00875544  0.54996340  0.40692813    -0.60200
H437        H  0.02997296  0.93579193  0.40220821     0.16700
O438        O  0.47223922  0.91996963  0.41658208    -0.60300
H439        H  0.96718688  0.91053396  0.42419403     0.43700
H440        H  0.51078863  0.55280881  0.38654691     0.43700
C441        C  0.27777701  0.96549370  0.34603561    -0.05400
C442        C  0.25745716  0.94865600  0.36843532    -0.32800
C443        C  0.22510720  0.95786252  0.37254497     0.36400
C444        C  0.21196294  0.98448655  0.35411122    -0.05700
C445        C  0.22846765  0.50858231  0.33511101    -0.32700
C446        C  0.26438688  0.99157108  0.32663362     0.36300
H447        H  0.26702836  0.92936029  0.38443356     0.16700
O448        O  0.20671170  0.94158899  0.39623119    -0.60200
H449        H  0.21881052  0.53004607  0.32262023     0.16700
O450        O  0.28039424  0.52076864  0.31215017    -0.60300
H451        H  0.28284596  0.50995185  0.28922717     0.43700
H452        H  0.20082248  0.92097837  0.38457657     0.43700
C453        C  0.51712104  0.93909673  0.12075394    -0.05400
C454        C  0.50084943  0.95660710  0.09536506    -0.32800
C455        C  0.50501883  0.48922857  0.08404811     0.36400
C456        C  0.03322677  0.50340323  0.10361067    -0.05700
C457        C  0.05193980  0.98540523  0.12766450    -0.32700
C458        C  0.03998163  0.95546670  0.13741378     0.36300
H459        H  0.48047797  0.94613125  0.08244324     0.16700
O460        O  0.48660770  0.50773237  0.06221465    -0.60200
H461        H  0.07032736  0.99633191  0.14342005     0.16700
O462        O  0.05335945  0.94084318  0.16573721    -0.60300
H463        H  0.04123586  0.94987338  0.18595325     0.43700
H464        H  0.46650182  0.51293049  0.07521965     0.43700
C465        C  0.49080863  0.75399232  0.17378210    -0.05400
C466        C  0.01971779  0.74402845  0.18078046    -0.32800
C467        C  0.02822094  0.71108215  0.17662787     0.36400
C468        C  0.00606836  0.68923485  0.16307300    -0.05700
C469        C  0.47870482  0.69962190  0.15254998    -0.32700
C470        C  0.47022304  0.73275765  0.15639450     0.36300
H471        H  0.03800200  0.76013089  0.19030444     0.16700
O472        O  0.05854031  0.70076614  0.18522129    -0.60200
H473        H  0.46282290  0.68402749  0.13816897     0.16700
O474        O  0.44264389  0.74427174  0.14148652    -0.60300
H475        H  0.44843705  0.74803385  0.11690692     0.43700
H476        H  0.05638464  0.69175168  0.20883101     0.43700
C477        C  0.07626809  0.51821738  0.28269194    -0.05400
C478        C  0.04282330  0.52463290  0.28135930    -0.32800
C479        C  0.02889650  0.54198015  0.25345070     0.36400
C480        C  0.04852739  0.55368194  0.22638617    -0.05700
C481        C  0.08180069  0.54631455  0.22786384    -0.32700
C482        C  0.09547132  0.52925499  0.25537971     0.36300
H483        H  0.02766807  0.51762230  0.30290246     0.16700
O484        O  0.99649571  0.54825759  0.25371738    -0.60200
H485        H  0.09795197  0.55434295  0.20764704     0.16700
O486        O  0.12819965  0.52549072  0.25648064    -0.60300
H487        H  0.13288789  0.50432546  0.24482979     0.43700
H488        H  0.99396624  0.57069988  0.26312456     0.43700
C489        C  0.02431315  0.81965750  0.98342039    -0.05400
C490        C  0.99671186  0.80760606  0.99912836    -0.32800
C491        C  0.48671264  0.81109922  0.03305602     0.36400
C492        C  0.51376843  0.81820732  0.05388195    -0.05700
C493        C  0.54354084  0.82157687  0.03723896    -0.32700
C494        C  0.05083070  0.82748249  0.00460807     0.36300
H495        H  0.97654763  0.80045133  0.98350236     0.16700
O496        O  0.45725245  0.80515310  0.04764255    -0.60200
H497        H  0.56471227  0.82648600  0.05228299     0.16700
O498        O  0.07915171  0.83774209  0.99029008    -0.60300
H499        H  0.07725191  0.86181640  0.98967206     0.43700
H500        H  0.45836120  0.78211140  0.05503651     0.43700
C501        C  0.13684102  0.98765923  0.47618740    -0.05400
C502        C  0.14882834  0.95960037  0.49200079    -0.32800
C503        C  0.15045999  0.95755752  0.52819683     0.36400
C504        C  0.13909465  0.98362968  0.54988512    -0.05700
C505        C  0.12880887  0.01234990  0.53404826    -0.32700
C506        C  0.12753796  0.01454651  0.49779477     0.36300
H507        H  0.15656142  0.93890594  0.47629384     0.16700
O508        O  0.16194261  0.92909862  0.54207040    -0.60200
H509        H  0.11974443  0.03251503  0.54973609     0.16700
O510        O  0.11101252  0.54614881  0.48572044    -0.60300
H511        H  0.08774400  0.54155989  0.48476959     0.43700
H512        H  0.18490242  0.93304465  0.54669806     0.43700
C513        C  0.04353078  0.89144488  0.79170901    -0.05400
C514        C  0.03914540  0.92557775  0.78894407    -0.32800
C515        C  0.05487133  0.94353604  0.76246113     0.36400
C516        C  0.07550126  0.92749505  0.73824281    -0.05700
C517        C  0.07912003  0.89337557  0.74129715    -0.32700
C518        C  0.06367498  0.87573650  0.76719913     0.36300
H519        H  0.02470589  0.93854735  0.80820050     0.16700
O520        O  0.04971597  0.97646675  0.76047957    -0.60200
H521        H  0.09443139  0.87968887  0.72343109     0.16700
O522        O  0.06879624  0.84267694  0.76859601    -0.60300
H523        H  0.09047626  0.83974462  0.77853355     0.43700
H524        H  0.06604760  0.98620724  0.77569688     0.43700
C525        C  0.51905278  0.62130724  0.96028207    -0.05400
C526        C  0.04182443  0.60090483  0.97712728    -0.32800
C527        C  0.04220865  0.59859213  0.01331919     0.36400
C528        C  0.01942662  0.61611518  0.03403153    -0.05700
C529        C  0.49919899  0.63903272  0.01762485    -0.32700
C530        C  0.49876927  0.64146480  0.98133249     0.36300
H531        H  0.05738398  0.58493959  0.96177243     0.16700
O532        O  0.06329385  0.57697823  0.02811569    -0.60200
H533        H  0.48284679  0.65393863  0.03319769     0.16700
O534        O  0.47740657  0.66269526  0.96634633    -0.60300
H535        H  0.45596039  0.65305575  0.96984747     0.43700
H536        H  0.08397584  0.58852923  0.02915296     0.43700
C537        C  0.51168797  0.50252299  0.90365592    -0.05400
C538        C  0.49576726  0.98306546  0.92332465    -0.32800
C539        C  0.50502691  0.95097905  0.93119284     0.36400
C540        C  0.03459300  0.93893075  0.91771719    -0.05700
C541        C  0.05399869  0.95804457  0.89704433    -0.32700
C542        C  0.04016304  0.48876118  0.88769994     0.36300
H543        H  0.47450144  0.99371082  0.93550052     0.16700
O544        O  0.48678902  0.93347120  0.95400685    -0.60200
H545        H  0.07467829  0.94731968  0.88373330     0.16700
O546        O  0.06045501  0.50546411  0.86629426    -0.60300
H547        H  0.05447588  0.49896639  0.84248039     0.43700
H548        H  0.46625547  0.92943170  0.94210955     0.43700
C549        C  0.48371652  0.68624985  0.84583452    -0.05400
C550        C  0.51257577  0.69798062  0.83101965    -0.32800
C551        C  0.52146716  0.73064868  0.83417898     0.36400
C552        C  0.00775222  0.75537483  0.85530590    -0.05700
C553        C  0.97745117  0.74458815  0.86696751    -0.32700
C554        C  0.96867990  0.71169344  0.86443698     0.36300
H555        H  0.52952118  0.68140702  0.81837926     0.16700
O556        O  0.55062172  0.74008472  0.82127696    -0.60200
H557        H  0.96091271  0.76151206  0.87973621     0.16700
O558        O  0.94006573  0.70220195  0.87863040    -0.60300
H559        H  0.94484524  0.69730342  0.90313591     0.43700
H560        H  0.54603656  0.74898734  0.79805932     0.43700
C561        C  0.33739019  0.98997799  0.54214990    -0.05400
C562        C  0.34378366  0.51473953  0.52516087    -0.32800
C563        C  0.34221276  0.01552710  0.48489276     0.36400
C564        C  0.33628354  0.98557262  0.46857836    -0.05700
C565        C  0.32708093  0.95915995  0.48961729    -0.32700
C566        C  0.32763733  0.96118377  0.52588153     0.36300
H567        H  0.35013176  0.53725111  0.53794289     0.16700
O568        O  0.35134868  0.54189490  0.47108238    -0.60200
H569        H  0.32132237  0.93595256  0.47793376     0.16700
O570        O  0.32001989  0.93436907  0.54497946    -0.60300
H571        H  0.29707154  0.93751872  0.55143271     0.43700
H572        H  0.37513048  0.54243059  0.47074979     0.43700
C573        C  0.02297997  0.97481710  0.61591592    -0.05400
C574        C  0.01114831  0.00735733  0.61833935    -0.32800
C575        C  0.97649124  0.52169020  0.61692727     0.36400
C576        C  0.45666629  0.99580478  0.60611794    -0.05700
C577        C  0.46903557  0.96492256  0.59555666    -0.32700
C578        C  0.50150530  0.95657511  0.59978722     0.36300
H579        H  0.02441645  0.53251156  0.62988076     0.16700
O580        O  0.96550828  0.55168968  0.62808029    -0.60200
H581        H  0.45289901  0.94600691  0.58735863     0.16700
O582        O  0.51194183  0.92537319  0.59277502    -0.60300
H583        H  0.50611873  0.91268464  0.61356729     0.43700
H584        H  0.96250648  0.54965163  0.65345866     0.43700
C585        C  0.20722107  0.97013780  0.67326020    -0.05400
C586        C  0.21784792  0.00254070  0.67753184    -0.32800
C587        C  0.24864598  0.50753503  0.67779633     0.36400
C588        C  0.27382182  0.98548165  0.67193967    -0.05700
C589        C  0.26328951  0.95285997  0.67044720    -0.32700
C590        C  0.23054092  0.94517223  0.67092328     0.36300
H591        H  0.19914060  0.52137905  0.68071794     0.16700
O592        O  0.25837090  0.53914596  0.68075290    -0.60200
H593        H  0.28047743  0.93300358  0.66714296     0.16700
O594        O  0.22178053  0.91329567  0.66758223    -0.60300
H595        H  0.21672641  0.90613445  0.69143305     0.43700
H596        H  0.26156381  0.54274853  0.70586674     0.43700
C597        C  0.40583594  0.51049631  0.73748656    -0.05400
C598        C  0.43934655  0.50551391  0.74002003    -0.32800
C599        C  0.45776829  0.52334234  0.76419939     0.36400
C600        C  0.44287439  0.54672308  0.78644033    -0.05700
C601        C  0.40924382  0.55054043  0.78444408    -0.32700
C602        C  0.39106055  0.53299827  0.76056516     0.36300
H603        H  0.45155535  0.48912608  0.72195316     0.16700
O604        O  0.49013290  0.51737920  0.76608308    -0.60200
H605        H  0.39672517  0.56787528  0.80123248     0.16700
O606        O  0.35875468  0.53956980  0.75857690    -0.60300
H607        H  0.34827630  0.52167228  0.77125377     0.43700
H608        H  0.50001446  0.53278314  0.74965458     0.43700
O609        O  0.90744525  0.02055911  0.62555055    -0.74300
O610        O  0.81831561  0.01737328  0.65823444    -0.74400
O611        O  0.87755368  0.02713727  0.68776395    -0.74400
O612        O  0.84901184  0.01637100  0.59610584    -0.74500
O613        O  0.84958512  0.46675295  0.59777512    -0.74400
O614        O  0.88650712  0.97395358  0.69363520    -0.74400
O615        O  0.82648872  0.46826976  0.66420782    -0.74400
O616        O  0.90839169  0.47289536  0.62365585    -0.74400
Ni617      Ni  0.86275813  0.02232602  0.64194674     1.25400
Ni618      Ni  0.86796596  0.46999986  0.64420159     1.25400
C619        C  0.92252472  0.99298646  0.62160413     0.87800
C620        C  0.80722121  0.98912943  0.66616259     0.87800
C621        C  0.88924816  0.00354424  0.70490162     0.87800
C622        C  0.84359242  0.49236823  0.57953271     0.88000
O623        O  0.97445169  0.04735620  0.89638446    -0.74300
O624        O  0.95895780  0.13715448  0.86570530    -0.74400
O625        O  0.94551393  0.07505312  0.84014603    -0.74400
O626        O  0.98144788  0.10793420  0.92189620    -0.74500
O627        O  0.03034001  0.10860067  0.89810091    -0.74400
O628        O  0.99281392  0.07235894  0.81313124    -0.74400
O629        O  0.00615731  0.13393506  0.83858444    -0.74400
O630        O  0.02185433  0.04991328  0.86996658    -0.74400
Ni631      Ni  0.96312567  0.09185118  0.88153155     1.25400
Ni632      Ni  0.01431406  0.09140321  0.85375027     1.25400
C633        C  0.00239738  0.03475475  0.88889554     0.87800
C634        C  0.98237334  0.15094170  0.84945773     0.87800
C635        C  0.96239316  0.06636292  0.81387741     0.87800
C636        C  0.01120287  0.11311659  0.92441552     0.88000
O637        O  0.57046726  0.43805142  0.62481854    -0.74300
O638        O  0.66000706  0.43654764  0.65554730    -0.74400
O639        O  0.60098809  0.42169115  0.68423032    -0.74400
O640        O  0.62884673  0.44666557  0.59593733    -0.74500
O641        O  0.62580614  0.49912771  0.61012787    -0.74400
O642        O  0.59294157  0.47261949  0.70211051    -0.74400
O643        O  0.65238997  0.48759243  0.67355826    -0.74400
O644        O  0.56870328  0.49016442  0.64061620    -0.74400
Ni645      Ni  0.61531893  0.43380783  0.63989632     1.25400
Ni646      Ni  0.61004372  0.48918265  0.65743211     1.25400
C647        C  0.55542604  0.46582950  0.62701244     0.87800
C648        C  0.67113642  0.46342490  0.66796292     0.87800
C649        C  0.59029180  0.44158375  0.70712636     0.87800
C650        C  0.63135720  0.47620414  0.58740133     0.88000
O651        O  0.55684900  0.38689563  0.90253489    -0.74300
O652        O  0.54583363  0.29822265  0.86809241    -0.74400
O653        O  0.55736716  0.35856754  0.83926348    -0.74400
O654        O  0.55019014  0.32753076  0.93082215    -0.74500
O655        O  0.49697793  0.33291419  0.92972301    -0.74400
O656        O  0.50528302  0.37116625  0.83758682    -0.74400
O657        O  0.49357614  0.30928247  0.86396906    -0.74400
O658        O  0.50355615  0.39208454  0.90348656    -0.74400
Ni659      Ni  0.55449114  0.34231786  0.88496094     1.27000
Ni660      Ni  0.49795159  0.35137511  0.88331375     1.25400
C661        C  0.53099583  0.40366002  0.90916606     0.87800
C662        C  0.51689029  0.28892863  0.86223725     0.87800
C663        C  0.53384573  0.37250396  0.82428172     0.87800
C664        C  0.52309739  0.32621537  0.94611677     0.88000
O665        O  0.55865491  0.05555246  0.11792523    -0.74300
O666        O  0.54332640  0.14498656  0.14882018    -0.74400
O667        O  0.55866049  0.08665660  0.17940827    -0.74400
O668        O  0.54835413  0.11305479  0.08698185    -0.74500
O669        O  0.49547257  0.10624606  0.09013108    -0.74400
O670        O  0.50743041  0.07313971  0.18452951    -0.74400
O671        O  0.49164152  0.13333295  0.15520640    -0.74400
O672        O  0.50566876  0.04889639  0.11974140    -0.74400
Ni673      Ni  0.55404915  0.10068902  0.13332732     1.25400
Ni674      Ni  0.49807036  0.09046018  0.13785981     1.25400
C675        C  0.53371171  0.03787840  0.11342670     0.87800
C676        C  0.51414737  0.15387751  0.15618877     0.87800
C677        C  0.53657972  0.07212959  0.19591139     0.87800
C678        C  0.52120705  0.11228078  0.07244121     0.88000
O679        O  0.57097371  0.02472308  0.39667718    -0.74300
O680        O  0.66092503  0.02378053  0.36510339    -0.74400
O681        O  0.60098937  0.03304372  0.33466489    -0.74400
O682        O  0.62913051  0.02118512  0.42641638    -0.74500
O683        O  0.62909189  0.46180874  0.41841922    -0.74400
O684        O  0.59719903  0.97959007  0.32609688    -0.74400
O685        O  0.65829974  0.46491701  0.35488515    -0.74400
O686        O  0.57326885  0.46591641  0.38563519    -0.74400
Ni687      Ni  0.61573204  0.02769595  0.38063581     1.25400
Ni688      Ni  0.61529536  0.46493932  0.36996232     1.25400
C689        C  0.55720081  0.99679871  0.39892303     0.87800
C690        C  0.67366668  0.99552248  0.35799998     0.87800
C691        C  0.59220710  0.00918414  0.31602321     0.87800
C692        C  0.63203800  0.48753499  0.43765875     0.88000
O693        O  0.91142973  0.44256528  0.40022577    -0.74300
O694        O  0.82528470  0.43524570  0.36262775    -0.74400
O695        O  0.88809173  0.42276933  0.33874837    -0.74400
O696        O  0.85047777  0.44947204  0.42402912    -0.74500
O697        O  0.85015558  0.50147185  0.40854519    -0.74400
O698        O  0.89233086  0.47385046  0.32102141    -0.74400
O699        O  0.82931805  0.48599658  0.34372560    -0.74400
O700        O  0.91022627  0.49440060  0.38406556    -0.74400
Ni701      Ni  0.86864793  0.43555753  0.38160117     1.25400
Ni702      Ni  0.87031532  0.49066858  0.36338381     1.25400
C703        C  0.92447044  0.47084288  0.39867188     0.87800
C704        C  0.81238413  0.46113829  0.34953600     0.87800
C705        C  0.89933726  0.44314615  0.31727059     0.87800
C706        C  0.84494860  0.47923826  0.43141744     0.88000
O707        O  0.97758774  0.39565379  0.12620420    -0.74300
O708        O  0.96249610  0.30651124  0.15763782    -0.74400
O709        O  0.95433299  0.36934918  0.18555080    -0.74400
O710        O  0.97927266  0.33542467  0.09866754    -0.74500
O711        O  0.03028706  0.32989710  0.11375042    -0.74400
O712        O  0.00448638  0.36780028  0.20461637    -0.74400
O713        O  0.01255391  0.30587360  0.17675340    -0.74400
O714        O  0.02783095  0.38903604  0.14364654    -0.74400
Ni715      Ni  0.96647746  0.35180131  0.14178995     1.25400
Ni716      Ni  0.02048389  0.34782478  0.16060602     1.25400
C717        C  0.00652531  0.40622449  0.12927675     0.87800
C718        C  0.98694553  0.29089060  0.17015330     0.87800
C719        C  0.97460947  0.37660356  0.20856593     0.87800
C720        C  0.00793647  0.32755768  0.09080011     0.88000
C721        C  0.92216403  0.42953582  0.28982599    -0.05400
C722        C  0.94077840  0.40133998  0.29747083    -0.32800
C723        C  0.96025102  0.38524577  0.27227820     0.36400
C724        C  0.96169912  0.39696374  0.23828983    -0.05700
C725        C  0.94431431  0.42596285  0.23095586    -0.32700
C726        C  0.92515068  0.44236443  0.25629888     0.36300
H727        H  0.93965244  0.39108538  0.32316765     0.16700
O728        O  0.97637455  0.35713993  0.28077972    -0.60200
H729        H  0.94464613  0.43533446  0.20484339     0.16700
O730        O  0.90847010  0.47003208  0.24744189    -0.60300
H731        H  0.88657784  0.46267757  0.24183324     0.43700
H732        H  0.96068941  0.33950394  0.27750833     0.43700
C733        C  0.95712374  0.47778461  0.41112911    -0.05400
C734        C  0.96725991  0.51053978  0.41142392    -0.32800
C735        C  0.50072012  0.01728671  0.41128882     0.36400
C736        C  0.52431223  0.48724112  0.40427643    -0.05700
C737        C  0.51270285  0.45499797  0.40475507    -0.32700
C738        C  0.97993153  0.45302569  0.41637938     0.36300
H739        H  0.94997758  0.53035204  0.40905603     0.16700
O740        O  0.50957819  0.04913278  0.40815764    -0.60200
H741        H  0.52888815  0.43421852  0.40206306     0.16700
O742        O  0.97124608  0.42100190  0.41748757    -0.60300
H743        H  0.46664047  0.40879652  0.42412856     0.43700
H744        H  0.01133976  0.05410039  0.38492936     0.43700
C745        C  0.77687862  0.46522153  0.34569905    -0.05400
C746        C  0.75662635  0.44796771  0.36779241    -0.32800
C747        C  0.72418427  0.45682022  0.37182227     0.36400
C748        C  0.71086678  0.48348966  0.35359814    -0.05700
C749        C  0.72924413  0.00993419  0.33579603    -0.32700
C750        C  0.76332175  0.49133850  0.32647141     0.36300
H751        H  0.76630558  0.42861560  0.38364073     0.16700
O752        O  0.70587762  0.44018858  0.39529661    -0.60200
H753        H  0.71958030  0.03194886  0.32441090     0.16700
O754        O  0.78125243  0.02351028  0.31413385    -0.60300
H755        H  0.78250274  0.01474721  0.29017468     0.43700
H756        H  0.70018503  0.41962533  0.38342446     0.43700
C757        C  0.01705168  0.43857320  0.11730200    -0.05400
C758        C  0.99803554  0.45713886  0.09513291    -0.32800
C759        C  0.01158796  0.98939525  0.08330564     0.36400
C760        C  0.53554680  0.00301164  0.10556440    -0.05700
C761        C  0.55223254  0.48278460  0.11927939    -0.32700
C762        C  0.54264549  0.45164062  0.12803351     0.36300
H763        H  0.97618536  0.44729213  0.08468996     0.16700
O764        O  0.99700366  0.00656085  0.05736335    -0.60200
H765        H  0.57313364  0.49275047  0.13173168     0.16700
O766        O  0.56184959  0.43459836  0.15036470    -0.60300
H767        H  0.55503659  0.44199658  0.17384944     0.43700
H768        H  0.97577363  0.01356755  0.06686708     0.43700
C769        C  0.98913799  0.25462260  0.17375740    -0.05400
C770        C  0.51786031  0.24309334  0.18300278    -0.32800
C771        C  0.52667822  0.21025071  0.17861918     0.36400
C772        C  0.50499867  0.18840556  0.16418799    -0.05700
C773        C  0.97801343  0.20040448  0.15132165    -0.32700
C774        C  0.96925651  0.23347582  0.15526488     0.36300
H775        H  0.53583598  0.25921758  0.19315362     0.16700
O776        O  0.55688531  0.20006051  0.18778599    -0.60200
H777        H  0.96276564  0.18486307  0.13608364     0.16700
O778        O  0.94226631  0.24507641  0.13924820    -0.60300
H779        H  0.94890302  0.24875366  0.11489428     0.43700
H780        H  0.55425085  0.19029365  0.21099375     0.43700
C781        C  0.57560217  0.01766586  0.28312861    -0.05400
C782        C  0.54297037  0.02784543  0.28379793    -0.32800
C783        C  0.52894501  0.04462606  0.25560706     0.36400
C784        C  0.54773278  0.05204488  0.22620676    -0.05700
C785        C  0.57998304  0.04063945  0.22547231    -0.32700
C786        C  0.59380216  0.02406035  0.25332905     0.36300
H787        H  0.52873218  0.02423048  0.30702798     0.16700
O788        O  0.49753420  0.05488783  0.25792953    -0.60200
H789        H  0.59522306  0.04536325  0.20325470     0.16700
O790        O  0.62595227  0.01645756  0.25216939    -0.60300
H791        H  0.62734735  0.99409272  0.24237043     0.43700
H792        H  0.49831262  0.07787141  0.26589320     0.43700
C793        C  0.52294512  0.31906178  0.98377944    -0.05400
C794        C  0.49579574  0.30593811  0.99941534    -0.32800
C795        C  0.98618825  0.31084442  0.03275823     0.36400
C796        C  0.01318053  0.31807441  0.05362137    -0.05700
C797        C  0.04290579  0.32185477  0.03701773    -0.32700
C798        C  0.54917588  0.32768997  0.00502208     0.36300
H799        H  0.47587623  0.29820728  0.98373972     0.16700
O800        O  0.95681744  0.30446774  0.04732233    -0.60200
H801        H  0.06403479  0.32685855  0.05209552     0.16700
O802        O  0.57703014  0.33922708  0.99079539    -0.60300
H803        H  0.57410906  0.36321564  0.99026759     0.43700
H804        H  0.95774499  0.28103793  0.05324333     0.43700
C805        C  0.63634802  0.48614225  0.47610104    -0.05400
C806        C  0.64805448  0.45793605  0.49187927    -0.32800
C807        C  0.64958712  0.45578776  0.52807900     0.36400
C808        C  0.63832886  0.48187542  0.54980482    -0.05700
C809        C  0.62840981  0.51074989  0.53401543    -0.32700
C810        C  0.62730878  0.51307751  0.49776215     0.36300
H811        H  0.65562716  0.43720498  0.47614091     0.16700
O812        O  0.66089089  0.42723558  0.54190334    -0.60200
H813        H  0.61952675  0.53097555  0.54973007     0.16700
O814        O  0.61267741  0.04608052  0.48584397    -0.60300
H815        H  0.58934875  0.04176849  0.48502457     0.43700
H816        H  0.68376202  0.43118445  0.54700545     0.43700
C817        C  0.54198869  0.39046282  0.79179527    -0.05400
C818        C  0.53840959  0.42469434  0.78930986    -0.32800
C819        C  0.55420409  0.44241588  0.76269823     0.36400
C820        C  0.57411264  0.42601317  0.73805321    -0.05700
C821        C  0.57684320  0.39177547  0.74077613    -0.32700
C822        C  0.56136057  0.37438840  0.76686589     0.36300
H823        H  0.52459920  0.43790286  0.80891196     0.16700
O824        O  0.54990047  0.47548983  0.76108102    -0.60200
H825        H  0.59153013  0.37779764  0.72256601     0.16700
O826        O  0.56576605  0.34123006  0.76809996    -0.60300
H827        H  0.58731138  0.33777979  0.77819843     0.43700
H828        H  0.56563863  0.48459732  0.77744281     0.43700
C829        C  0.02161914  0.12156476  0.95987955    -0.05400
C830        C  0.54420487  0.10004671  0.97764532    -0.32800
C831        C  0.54443647  0.09821355  0.01389826     0.36400
C832        C  0.52144902  0.11584887  0.03423890    -0.05700
C833        C  0.00160574  0.13983394  0.01695600    -0.32700
C834        C  0.00153239  0.14215640  0.98065793     0.36300
H835        H  0.55988533  0.08394717  0.96259577     0.16700
O836        O  0.56552138  0.07688122  0.02912257    -0.60200
H837        H  0.98543185  0.15512590  0.03232308     0.16700
O838        O  0.98063624  0.16367210  0.96538275    -0.60300
H839        H  0.95901698  0.15435125  0.96863557     0.43700
H840        H  0.58603033  0.08870174  0.03054109     0.43700
C841        C  0.01436391  0.00265627  0.90129258    -0.05400
C842        C  0.99192897  0.48449394  0.92311998    -0.32800
C843        C  0.00092089  0.45229310  0.93082443     0.36400
C844        C  0.53085684  0.43827669  0.91895220    -0.05700
C845        C  0.55173772  0.45819577  0.90102685    -0.32700
C846        C  0.54205419  0.98638335  0.88483235     0.36300
H847        H  0.97000254  0.49479626  0.93418784     0.16700
O848        O  0.98179533  0.43439100  0.95240287    -0.60200
H849        H  0.57345635  0.44804671  0.88926603     0.16700
O850        O  0.56091215  0.00235548  0.86134770    -0.60300
H851        H  0.55281993  0.99579562  0.83833059     0.43700
H852        H  0.96169526  0.43072304  0.93955026     0.43700
C853        C  0.98566646  0.18711585  0.84594712    -0.05400
C854        C  0.01476702  0.19909237  0.83193521    -0.32800
C855        C  0.02315191  0.23190309  0.83502517     0.36400
C856        C  0.50860322  0.25411389  0.85612736    -0.05700
C857        C  0.47838385  0.24295867  0.86762289    -0.32700
C858        C  0.47006465  0.20994751  0.86520277     0.36300
H859        H  0.03226099  0.18264099  0.82000884     0.16700
O860        O  0.05254506  0.24158695  0.82301808    -0.60200
H861        H  0.46151435  0.25971519  0.88013529     0.16700
O862        O  0.44149212  0.20013848  0.87923165    -0.60300
H863        H  0.44617011  0.19545002  0.90380843     0.43700
H864        H  0.04848963  0.25056060  0.79971545     0.43700
C865        C  0.83613198  0.49068297  0.54177010    -0.05400
C866        C  0.84465792  0.01607150  0.52460445    -0.32800
C867        C  0.84138287  0.51611612  0.48450164     0.36400
C868        C  0.83522899  0.48620945  0.46819552    -0.05700
C869        C  0.82573674  0.45989889  0.48923047    -0.32700
C870        C  0.82619806  0.46195456  0.52550279     0.36300
H871        H  0.85065579  0.03873234  0.53729879     0.16700
O872        O  0.85175728  0.04314662  0.47040257    -0.60200
H873        H  0.81982375  0.43673782  0.47753905     0.16700
O874        O  0.81828265  0.43523900  0.54461577    -0.60300
H875        H  0.79538392  0.43868061  0.55112962     0.43700
H876        H  0.87552700  0.04389173  0.46973899     0.43700
C877        C  0.52201764  0.47211092  0.61558903    -0.05400
C878        C  0.51017347  0.50467611  0.61713298    -0.32800
C879        C  0.47817878  0.02005907  0.61527143     0.36400
C880        C  0.95520753  0.49782048  0.60615345    -0.05700
C881        C  0.96779017  0.46734230  0.59460250    -0.32700
C882        C  0.00020650  0.45887831  0.59911705     0.36300
H883        H  0.52641180  0.03127959  0.62658436     0.16700
O884        O  0.46745392  0.05052671  0.62515161    -0.60200
H885        H  0.95179697  0.44873464  0.58533488     0.16700
O886        O  0.01084222  0.42800363  0.59085579    -0.60300
H887        H  0.00491731  0.41450103  0.61101581     0.43700
H888        H  0.46499367  0.04963725  0.65067830     0.43700
C889        C  0.70613308  0.46935122  0.67338792    -0.05400
C890        C  0.71644588  0.50184052  0.67786971    -0.32800
C891        C  0.74954225  0.00832398  0.67725247     0.36400
C892        C  0.77255051  0.48538477  0.67187345    -0.05700
C893        C  0.76234825  0.45266396  0.67021719    -0.32700
C894        C  0.72969215  0.44463888  0.67077072     0.36300
H895        H  0.69989911  0.02163655  0.68013576     0.16700
O896        O  0.75890955  0.04008422  0.67975816    -0.60200
H897        H  0.77971604  0.43299951  0.66668630     0.16700
O898        O  0.72124550  0.41269555  0.66717872    -0.60300
H899        H  0.71722462  0.40504546  0.69107168     0.43700
H900        H  0.76271013  0.04384358  0.70473928     0.43700
C901        C  0.90706597  0.01300996  0.73685108    -0.05400
C902        C  0.94037599  0.00689434  0.73979808    -0.32800
C903        C  0.95919824  0.02444101  0.76385468     0.36400
C904        C  0.94490952  0.04861100  0.78556290    -0.05700
C905        C  0.91145996  0.05362765  0.78312383    -0.32700
C906        C  0.89288103  0.03638857  0.75937840     0.36300
H907        H  0.95216189  0.98977335  0.72218371     0.16700
O908        O  0.99132108  0.01737935  0.76625112    -0.60200
H909        H  0.89940967  0.07160423  0.79954123     0.16700
O910        O  0.86079960  0.04397785  0.75708058    -0.60300
H911        H  0.84969221  0.02673933  0.77016658     0.43700
H912        H  0.00173320  0.03070039  0.74818941     0.43700
O913        O  0.90512335  0.52693730  0.62079472    -0.74300
O914        O  0.81708756  0.52103975  0.65606943    -0.74400
O915        O  0.87682184  0.53252510  0.68392600    -0.74400
O916        O  0.84613664  0.52059921  0.59289496    -0.74500
O917        O  0.85094072  0.96245096  0.60049990    -0.74400
O918        O  0.88765512  0.47962694  0.68933612    -0.74400
O919        O  0.82582025  0.96429868  0.66620201    -0.74400
O920        O  0.90893386  0.96652502  0.62880235    -0.74400
Ni921      Ni  0.86090090  0.52724963  0.63844244     1.25400
Ni922      Ni  0.86790028  0.96490291  0.64774765     1.25400
C923        C  0.92096149  0.49988103  0.61633485     0.87800
C924        C  0.80711062  0.49251253  0.66454764     0.87800
C925        C  0.88970234  0.50924426  0.70067077     0.87800
C926        C  0.84615008  0.98839665  0.58233159     0.88000
O927        O  0.97173203  0.54838960  0.89441706    -0.74300
O928        O  0.96036998  0.63934667  0.86550833    -0.74400
O929        O  0.94554526  0.57821984  0.83780545    -0.74400
O930        O  0.97986883  0.60816331  0.92156417    -0.74500
O931        O  0.02940047  0.60814682  0.89935382    -0.74400
O932        O  0.99353966  0.57418959  0.81246072    -0.74400
O933        O  0.00804347  0.63499019  0.83954251    -0.74400
O934        O  0.02005644  0.55009215  0.86997897    -0.74400
Ni935      Ni  0.96237136  0.59355257  0.88022347     1.25400
Ni936      Ni  0.01431747  0.59199417  0.85419477     1.25400
C937        C  0.99957045  0.53513540  0.88777915     0.87800
C938        C  0.98476945  0.65265453  0.85050516     0.87800
C939        C  0.96291770  0.56927918  0.81198979     0.87800
C940        C  0.00961254  0.61279873  0.92508099     0.88000
O941        O  0.56954079  0.94372464  0.62233865    -0.74300
O942        O  0.65839911  0.93809901  0.65502730    -0.74400
O943        O  0.59847677  0.92365505  0.68175640    -0.74400
O944        O  0.62873327  0.95170227  0.59564479    -0.74500
O945        O  0.62611627  0.00364994  0.61203926    -0.74400
O946        O  0.59249304  0.97391024  0.70249356    -0.74400
O947        O  0.65215212  0.98877064  0.67475773    -0.74400
O948        O  0.56855229  0.99477311  0.64171705    -0.74400
Ni949      Ni  0.61392433  0.93736699  0.63840796     1.25400
Ni950      Ni  0.60988482  0.99203912  0.65868230     1.25400
C951        C  0.55512696  0.97174364  0.62584495     0.87800
C952        C  0.67024278  0.96427854  0.66830906     0.87800
C953        C  0.58896142  0.94277296  0.70592574     0.87800
C954        C  0.63188127  0.98148619  0.58854516     0.88000
O955        O  0.55497099  0.88326088  0.89822156    -0.74300
O956        O  0.53975865  0.79542937  0.86384480    -0.74400
O957        O  0.55416104  0.85500982  0.83509234    -0.74400
O958        O  0.54545341  0.82437432  0.92678540    -0.74500
O959        O  0.49258808  0.83257182  0.92582693    -0.74400
O960        O  0.50269487  0.87011295  0.83351642    -0.74400
O961        O  0.48793589  0.80872649  0.86006375    -0.74400
O962        O  0.50192667  0.89110325  0.89923774    -0.74400
Ni963      Ni  0.55046387  0.83890102  0.88079780     1.27000
Ni964      Ni  0.49436677  0.85068245  0.87926565     1.25400
C965        C  0.52994295  0.90130810  0.90469632     0.87800
C966        C  0.51043913  0.78745606  0.85795563     0.87800
C967        C  0.53137231  0.87035511  0.82033174     0.87800
C968        C  0.51838060  0.82468260  0.94228691     0.88000
O969        O  0.55749696  0.55416784  0.11365213    -0.74300
O970        O  0.54582904  0.64315010  0.14844436    -0.74400
O971        O  0.56058776  0.58338596  0.17629910    -0.74400
O972        O  0.54814814  0.61307859  0.08547739    -0.74500
O973        O  0.49523164  0.60726604  0.09017315    -0.74400
O974        O  0.50935614  0.57083276  0.18315176    -0.74400
O975        O  0.49409747  0.63233878  0.15629927    -0.74400
O976        O  0.50444273  0.54888148  0.11750119    -0.74400
Ni977      Ni  0.55484593  0.59897577  0.13100212     1.25400
Ni978      Ni  0.49882460  0.58993786  0.13735309     1.25400
C979        C  0.53187402  0.53736569  0.10939165     0.87800
C980        C  0.51698214  0.65243622  0.15683650     0.87800
C981        C  0.53885588  0.56905315  0.19351400     0.87800
C982        C  0.52062105  0.61315830  0.07178521     0.88000
O983        O  0.57230494  0.51966864  0.39266147    -0.74300
O984        O  0.66295273  0.51821883  0.36379784    -0.74400
O985        O  0.60394541  0.52780897  0.33170846    -0.74400
O986        O  0.62965539  0.51564504  0.42439047    -0.74500
O987        O  0.62835155  0.96730382  0.42078074    -0.74400
O988        O  0.59951874  0.47444120  0.32307649    -0.74400
O989        O  0.65631729  0.97045568  0.35666113    -0.74400
O990        O  0.57180445  0.97097401  0.38933924    -0.74400
Ni991      Ni  0.61747057  0.52234603  0.37811507     1.25400
Ni992      Ni  0.61364233  0.97024788  0.37266652     1.25400
C993        C  0.55834256  0.49181794  0.39427253     0.87800
C994        C  0.67565756  0.48995723  0.35667998     0.87800
C995        C  0.59505925  0.50409250  0.31289494     0.87800
C996        C  0.63171195  0.99314090  0.43974070     0.88000
O997        O  0.91122367  0.94399044  0.39555845    -0.74300
O998        O  0.82340354  0.94220244  0.36237347    -0.74400
O999        O  0.88381366  0.92911257  0.33450109    -0.74400
O1000       O  0.85181931  0.95172891  0.42339235    -0.74500
O1001       O  0.85254878  0.00457353  0.41157267    -0.74400
O1002       O  0.89016481  0.98105489  0.32054310    -0.74400
O1003       O  0.82853826  0.99387604  0.34691967    -0.74400
O1004       O  0.91138573  0.99691212  0.38373361    -0.74400
Ni1005     Ni  0.86737849  0.93984094  0.37915084     1.25400
Ni1006     Ni  0.87050788  0.99594739  0.36491684     1.25400
C1007       C  0.92537406  0.97172697  0.39530375     0.87800
C1008       C  0.81105124  0.96910172  0.35111643     0.87800
C1009       C  0.89447603  0.95035576  0.31372337     0.87800
C1010       C  0.84750759  0.98112215  0.43306164     0.88000
O1011       O  0.97425542  0.89766897  0.12494674    -0.74300
O1012       O  0.96126731  0.80703872  0.15303244    -0.74400
O1013       O  0.94805208  0.86857892  0.18154335    -0.74400
O1014       O  0.98114138  0.83779963  0.09652280    -0.74500
O1015       O  0.03034955  0.83195242  0.11746143    -0.74400
O1016       O  0.99665958  0.87213448  0.20403426    -0.74400
O1017       O  0.00829620  0.80936440  0.17922949    -0.74400
O1018       O  0.02386334  0.89179756  0.14463515    -0.74400
Ni1019     Ni  0.96420091  0.85281860  0.13856858     1.25400
Ni1020     Ni  0.01641920  0.85108504  0.16241682     1.25400
C1021       C  0.00268924  0.90891216  0.12996267     0.87800
C1022       C  0.98494810  0.79275474  0.16853035     0.87800
C1023       C  0.96604956  0.87820322  0.20583921     0.87800
C1024       C  0.01027002  0.82927115  0.09228018     0.88000
C1025       C  0.91234407  0.93716419  0.28253511    -0.05400
C1026       C  0.94565436  0.94183761  0.27783484    -0.32800
C1027       C  0.96409247  0.92237884  0.25403863     0.36400
C1028       C  0.94944923  0.89746495  0.23457218    -0.05700
C1029       C  0.91607561  0.89360341  0.23908940    -0.32700
C1030       C  0.89790123  0.91274647  0.26257755     0.36300
H1031       H  0.95766470  0.95974709  0.29356650     0.16700
O1032       O  0.99604716  0.92862393  0.24937607    -0.60200
H1033       H  0.90365710  0.87528533  0.22429325     0.16700
O1034       O  0.86563929  0.90722103  0.26605909    -0.60300
H1035       H  0.86402156  0.88738148  0.28036746     0.43700
H1036       H  0.00734333  0.91415812  0.26581500     0.43700
C1037       C  0.95898498  0.97609467  0.40570895    -0.05400
C1038       C  0.97041003  0.00816147  0.40985857    -0.32800
C1039       C  0.50246740  0.51313617  0.40921156     0.36400
C1040       C  0.52367863  0.99208109  0.41079157    -0.05700
C1041       C  0.51338684  0.95976825  0.41616986    -0.32700
C1042       C  0.98102497  0.95011147  0.40490143     0.36300
H1043       H  0.95375571  0.02864778  0.41155670     0.16700
O1044       O  0.51265031  0.54468733  0.41053686    -0.60200
H1045       H  0.53062246  0.93980332  0.41744807     0.16700
O1046       O  0.97119383  0.91866917  0.40048992    -0.60300
H1047       H  0.46877596  0.91495159  0.44137574     0.43700
H1048       H  0.00806869  0.55416307  0.38171657     0.43700
C1049       C  0.77564687  0.97370542  0.34693318    -0.05400
C1050       C  0.75499434  0.95272551  0.36425642    -0.32800
C1051       C  0.72226037  0.96020670  0.36802149     0.36400
C1052       C  0.70892527  0.98920238  0.35406390    -0.05700
C1053       C  0.73068122  0.50038896  0.33069160    -0.32700
C1054       C  0.76222939  0.00227740  0.33187710     0.36300
H1055       H  0.76447486  0.93120030  0.37680388     0.16700
O1056       O  0.70378332  0.93989791  0.38766882    -0.60200
H1057       H  0.72082316  0.52029130  0.31575965     0.16700
O1058       O  0.78194724  0.50883464  0.30410645    -0.60300
H1059       H  0.78269106  0.49586043  0.28236400     0.43700
H1060       H  0.69959850  0.92084100  0.37256883     0.43700
C1061       C  0.01345901  0.94171190  0.11995582    -0.05400
C1062       C  0.00029907  0.95839865  0.09193984    -0.32800
C1063       C  0.00617464  0.48934241  0.08788419     0.36400
C1064       C  0.53230755  0.50273589  0.09994497    -0.05700
C1065       C  0.55422258  0.98415649  0.12748458    -0.32700
C1066       C  0.54496876  0.95276975  0.13576483     0.36300
H1067       H  0.98089194  0.94790328  0.07740592     0.16700
O1068       O  0.98642926  0.50778336  0.06735511    -0.60200
H1069       H  0.57353499  0.99510385  0.14184827     0.16700
O1070       O  0.56226761  0.93662661  0.16049527    -0.60300
H1071       H  0.55262335  0.94372542  0.18294155     0.43700
H1072       H  0.96629140  0.51122933  0.08090309     0.43700
C1073       C  0.98923678  0.75650652  0.17092655    -0.05400
C1074       C  0.51898049  0.74048671  0.18865208    -0.32800
C1075       C  0.52789244  0.70763711  0.18382281     0.36400
C1076       C  0.50816356  0.68700223  0.16480112    -0.05700
C1077       C  0.97486980  0.70102295  0.15548543    -0.32700
C1078       C  0.96655726  0.73429286  0.15882505     0.36300
H1079       H  0.53539255  0.75588483  0.20254522     0.16700
O1080       O  0.55622307  0.69623280  0.19718268    -0.60200
H1081       H  0.95713085  0.68460267  0.14535716     0.16700
O1082       O  0.93648998  0.74477251  0.14957153    -0.60300
H1083       H  0.93725488  0.74633167  0.12399392     0.43700
H1084       H  0.55082437  0.68931541  0.22102968     0.43700
C1085       C  0.57948001  0.51297378  0.27944580    -0.05400
C1086       C  0.54575418  0.51718955  0.27722026    -0.32800
C1087       C  0.53140527  0.53477020  0.24961705     0.36400
C1088       C  0.55082514  0.54900025  0.22377355    -0.05700
C1089       C  0.58440464  0.54350568  0.22597439    -0.32700
C1090       C  0.59847054  0.52621014  0.25313053     0.36300
H1091       H  0.53057625  0.50827764  0.29788719     0.16700
O1092       O  0.49869752  0.53863087  0.24893411    -0.60200
H1093       H  0.60052955  0.55329478  0.20668552     0.16700
O1094       O  0.63129289  0.52430108  0.25492561    -0.60300
H1095       H  0.63744384  0.50413876  0.24204687     0.43700
H1096       H  0.49411872  0.55940724  0.26140804     0.43700
C1097       C  0.51788596  0.81814906  0.98025915    -0.05400
C1098       C  0.48882731  0.81192748  0.99696421    -0.32800
C1099       C  0.99412913  0.80600579  0.03513599     0.36400
C1100       C  0.01877651  0.81824528  0.05651143    -0.05700
C1101       C  0.04776335  0.82707578  0.04089533    -0.32700
C1102       C  0.54585974  0.82113307  0.00080445     0.36300
H1103       H  0.46727424  0.80858570  0.98201869     0.16700
O1104       O  0.96604229  0.79493610  0.04924944    -0.60200
H1105       H  0.06706780  0.83624056  0.05656883     0.16700
O1106       O  0.57545826  0.82519113  0.98571240    -0.60300
H1107       H  0.57828565  0.84907014  0.98450034     0.43700
H1108       H  0.97040914  0.77174386  0.05465780     0.43700
C1109       C  0.63661275  0.99206090  0.47799265    -0.05400
C1110       C  0.65032855  0.96472193  0.49360203    -0.32800
C1111       C  0.65243201  0.96285172  0.52974530     0.36400
C1112       C  0.63963229  0.98820914  0.55146962    -0.05700
C1113       C  0.62793622  0.01644728  0.53582225    -0.32700
C1114       C  0.62629215  0.01854986  0.49962358     0.36300
H1115       H  0.65895813  0.94444228  0.47779943     0.16700
O1116       O  0.66546515  0.93505042  0.54358556    -0.60200
H1117       H  0.61778867  0.03603048  0.55160250     0.16700
O1118       O  0.61571049  0.54150292  0.48394470    -0.60300
H1119       H  0.59209840  0.53898254  0.48323837     0.43700
H1120       H  0.68732081  0.94108394  0.55089286     0.43700
C1121       C  0.54058853  0.88918652  0.78870102    -0.05400
C1122       C  0.53724223  0.92350954  0.78741341    -0.32800
C1123       C  0.55344635  0.94199364  0.76174882     0.36400
C1124       C  0.57320812  0.92628187  0.73651312    -0.05700
C1125       C  0.57617105  0.89200654  0.73828326    -0.32700
C1126       C  0.56054763  0.87385955  0.76371576     0.36300
H1127       H  0.52329971  0.93617223  0.80730510     0.16700
O1128       O  0.54972835  0.97517170  0.76170323    -0.60200
H1129       H  0.59111683  0.87864428  0.71979326     0.16700
O1130       O  0.56526151  0.84071529  0.76412565    -0.60300
H1131       H  0.58684292  0.83724722  0.77413747     0.43700
H1132       H  0.56841753  0.98350651  0.77451583     0.43700
C1133       C  0.01920634  0.62086706  0.96088336    -0.05400
C1134       C  0.54156222  0.60110234  0.97641209    -0.32800
C1135       C  0.54239836  0.59906544  0.01263798     0.36400
C1136       C  0.52014560  0.61708000  0.03357680    -0.05700
C1137       C  0.99828735  0.63779347  0.01799965    -0.32700
C1138       C  0.99828737  0.64051356  0.98177068     0.36300
H1139       H  0.55661224  0.58469844  0.96098785     0.16700
O1140       O  0.56330024  0.57716836  0.02728199    -0.60200
H1141       H  0.98154564  0.65235030  0.03346944     0.16700
O1142       O  0.97683922  0.66159330  0.96667391    -0.60300
H1143       H  0.95545917  0.65173909  0.96993803     0.43700
H1144       H  0.58426215  0.58824556  0.02767820     0.43700
C1145       C  0.01027182  0.50242210  0.89975606    -0.05400
C1146       C  0.99762739  0.98520515  0.92641407    -0.32800
C1147       C  0.00768700  0.95349183  0.93483088     0.36400
C1148       C  0.53149011  0.93594622  0.91375123    -0.05700
C1149       C  0.55123527  0.95473442  0.89311879    -0.32700
C1150       C  0.54237325  0.48986175  0.89285714     0.36300
H1151       H  0.97599522  0.99539441  0.93825847     0.16700
O1152       O  0.98970302  0.93576802  0.95768546    -0.60200
H1153       H  0.57152183  0.94360251  0.87947195     0.16700
O1154       O  0.56286867  0.50731221  0.87238229    -0.60300
H1155       H  0.55894858  0.49970961  0.84839211     0.43700
H1156       H  0.96932065  0.93120384  0.94570451     0.43700
C1157       C  0.98968806  0.68876780  0.84864777    -0.05400
C1158       C  0.01947179  0.70008206  0.83566233    -0.32800
C1159       C  0.02867442  0.73265123  0.83937667     0.36400
C1160       C  0.50105332  0.75307164  0.85128333    -0.05700
C1161       C  0.47119944  0.74208347  0.86399720    -0.32700
C1162       C  0.46278043  0.70903377  0.86202374     0.36300
H1163       H  0.03669043  0.68330107  0.82378847     0.16700
O1164       O  0.05847094  0.74172506  0.82799099    -0.60200
H1165       H  0.45495582  0.75890848  0.87734534     0.16700
O1166       O  0.43473955  0.69923913  0.87728816    -0.60300
H1167       H  0.44021625  0.69499763  0.90175754     0.43700
H1168       H  0.05534249  0.74891888  0.80382962     0.43700
C1169       C  0.83959568  0.98762614  0.54431037    -0.05400
C1170       C  0.84169305  0.51820823  0.52085308    -0.32800
C1171       C  0.84460418  0.01541578  0.48821432     0.36400
C1172       C  0.83902492  0.98607904  0.47053710    -0.05700
C1173       C  0.83045188  0.95861771  0.49036351    -0.32700
C1174       C  0.83085530  0.95919287  0.52668810     0.36300
H1175       H  0.84845266  0.54109733  0.53255889     0.16700
O1176       O  0.84912886  0.54289178  0.46538732    -0.60200
H1177       H  0.82510470  0.93577747  0.47765847     0.16700
O1178       O  0.82402575  0.93138624  0.54448422    -0.60300
H1179       H  0.80080408  0.93318010  0.55020354     0.43700
H1180       H  0.87290165  0.54261877  0.46391961     0.43700
C1181       C  0.52238431  0.97977675  0.61315006    -0.05400
C1182       C  0.51074145  0.01217874  0.61787629    -0.32800
C1183       C  0.47737246  0.51190029  0.61632317     0.36400
C1184       C  0.95676939  0.98957712  0.61154420    -0.05700
C1185       C  0.96903007  0.95796802  0.60357027    -0.32700
C1186       C  0.00171100  0.95029331  0.60673573     0.36300
H1187       H  0.52611746  0.52473336  0.62194477     0.16700
O1188       O  0.46683614  0.54318723  0.62281537    -0.60200
H1189       H  0.95286641  0.93823630  0.59808904     0.16700
O1190       O  0.01204769  0.91859260  0.60301429    -0.60300
H1191       H  0.00778932  0.90838671  0.62573355     0.43700
H1192       H  0.46642955  0.54546078  0.64838047     0.43700
C1193       C  0.70540322  0.96913096  0.67368457    -0.05400
C1194       C  0.71667211  0.00130066  0.67791536    -0.32800
C1195       C  0.74908029  0.50989573  0.67699519     0.36400
C1196       C  0.77230756  0.98307487  0.67262264    -0.05700
C1197       C  0.76111657  0.95068875  0.67095646    -0.32700
C1198       C  0.72820689  0.94369233  0.67133852     0.36300
H1199       H  0.69908803  0.52163771  0.68041924     0.16700
O1200       O  0.75751345  0.54192462  0.67974379    -0.60200
H1201       H  0.77791542  0.93048306  0.66773507     0.16700
O1202       O  0.71877772  0.91201740  0.66806181    -0.60300
H1203       H  0.71371212  0.90496126  0.69194947     0.43700
H1204       H  0.75980567  0.54602980  0.70490129     0.43700
C1205       C  0.90784168  0.51888410  0.73241152    -0.05400
C1206       C  0.94103318  0.51217253  0.73562045    -0.32800
C1207       C  0.95985708  0.52878623  0.76046288     0.36400
C1208       C  0.94565301  0.55257399  0.78274077    -0.05700
C1209       C  0.91232300  0.55826531  0.77984217    -0.32700
C1210       C  0.89377431  0.54197315  0.75532886     0.36300
H1211       H  0.95272183  0.49517685  0.71779678     0.16700
O1212       O  0.99183232  0.52109080  0.76315323    -0.60200
H1213       H  0.90029436  0.57595807  0.79661870     0.16700
O1214       O  0.86177643  0.54992535  0.75302643    -0.60300
H1215       H  0.85050671  0.53304259  0.76647927     0.43700
H1216       H  0.00248778  0.53290449  0.74406385     0.43700
loop_ 
_geom_bond_atom_site_label_1 
_geom_bond_atom_site_label_2 
_geom_bond_distance 
_geom_bond_site_symmetry_2 
_ccdc_geom_bond_type 
O1           Ni9   1.959       .  S
O1           C11   1.293   1_545  A
O2           Ni9   1.964       .  S
O2           C12   1.294   1_545  A
O3           Ni9   1.899       .  S
O3           C13   1.274       .  A
O4           Ni9   1.891       .  S
O4          C318   1.272   1_545  A
O5          Ni10   1.970       .  S
O5           C14   1.296       .  A
O6         Ni314   1.977       .  S
O6           C13   1.295   1_565  A
O7          Ni10   1.886       .  S
O7          C316   1.271       .  A
O8          Ni10   1.856       .  S
O8          C315   1.266       .  A
Ni9        Ni314   2.378   1_545  S
Ni10        O310   1.980       .  S
Ni10       Ni313   2.379       .  S
C11         O312   1.267       .  A
C11         C576   1.479       .  S
C12         O311   1.272       .  A
C12         C588   1.499       .  S
C13         C293   1.503       .  S
C14         O308   1.270       .  A
C14         C257   1.498       .  S
O15         Ni23   1.973       .  S
O15          C25   1.296       .  A
O16         Ni23   1.970       .  S
O16          C26   1.296       .  A
O17         Ni23   1.897       .  S
O17          C27   1.274       .  A
O18         Ni23   1.864       .  S
O18          C28   1.266       .  A
O19         Ni24   1.977       .  S
O19          C28   1.296       .  A
O20         Ni24   1.983       .  S
O20          C27   1.296       .  A
O21         Ni24   1.875       .  S
O21          C26   1.269       .  A
O22         Ni24   1.845       .  S
O22          C25   1.262       .  A
Ni23        Ni24   2.377       .  S
C25         C233   1.487       .  S
C26         C245   1.503       .  S
C27         C296   1.514       .  S
C28         C221   1.483       .  S
O29         Ni37   1.973       .  S
O29          C39   1.296       .  A
O30         Ni37   1.970       .  S
O30          C40   1.296       .  A
O31         Ni37   1.881       .  S
O31          C41   1.271       .  A
O32         Ni37   1.861       .  S
O32          C42   1.265       .  A
O33         Ni38   1.983       .  S
O33          C42   1.299       .  A
O34         Ni38   1.990       .  S
O34          C41   1.298       .  A
O35         Ni38   1.878       .  S
O35          C40   1.269       .  A
O36         Ni38   1.853       .  S
O36          C39   1.265       .  A
Ni37        Ni38   2.376       .  S
C39         C269   1.489       .  S
C40         C281   1.499       .  S
C41         C212   1.515       .  S
C42         C200   1.493       .  S
O43         Ni51   1.952       .  S
O43          C53   1.292       .  A
O44         Ni51   1.958       .  S
O44          C54   1.293       .  A
O45         Ni51   1.896       .  S
O45          C55   1.274       .  A
O46         Ni51   1.889       .  S
O46          C56   1.271       .  A
O47         Ni52   1.955       .  S
O47          C56   1.294   1_655  A
O48         Ni52   1.975   1_455  S
O48          C55   1.294       .  A
O49         Ni52   1.894       .  S
O49          C54   1.273   1_655  A
O50         Ni52   1.859       .  S
O50          C53   1.266   1_655  A
Ni51        Ni52   2.382   1_455  S
C53         C236   1.467       .  S
C54         C248   1.493       .  S
C55         C209   1.500       .  S
C56         C185   1.494       .  S
O57         Ni65   1.952       .  S
O57          C67   1.291       .  A
O58         Ni65   1.958       .  S
O58          C68   1.292       .  A
O59         Ni65   1.885       .  S
O59          C69   1.273       .  A
O60         Ni65   1.882       .  S
O60          C70   1.269       .  A
O61         Ni66   1.968   1_655  S
O61          C70   1.295   1_655  A
O62         Ni66   1.995       .  S
O62          C69   1.299       .  A
O63         Ni66   1.893   1_655  S
O63          C68   1.272   1_655  A
O64         Ni66   1.858       .  S
O64          C67   1.266       .  A
Ni65        Ni66   2.381       .  S
C67         C152   1.460       .  S
C68         C164   1.489       .  S
C69         C176   1.522       .  S
C70         C224   1.486       .  S
O71         Ni79   1.965       .  S
O71          C81   1.294   1_545  A
O72         Ni79   1.974       .  S
O72          C82   1.295   1_545  A
O73         Ni79   1.899       .  S
O73          C83   1.274       .  A
O74         Ni79   1.886       .  S
O74         C388   1.270   1_545  A
O75         Ni80   1.968       .  S
O75          C84   1.295       .  A
O76        Ni384   1.976       .  S
O76          C83   1.295   1_565  A
O77         Ni80   1.879       .  S
O77         C386   1.270       .  A
O78         Ni80   1.853       .  S
O78         C385   1.266       .  A
Ni79       Ni384   2.380   1_545  S
Ni80        O380   1.972       .  S
Ni80       Ni383   2.382       .  S
C81         O382   1.264       .  A
C81         C432   1.481       .  S
C82         O381   1.269       .  A
C82         C444   1.490       .  S
C83         C173   1.499       .  S
C84         O378   1.269       .  A
C84         C197   1.495       .  S
O85         Ni93   1.949       .  S
O85          C95   1.291       .  A
O86         Ni93   1.951       .  S
O86          C96   1.292       .  A
O87         Ni93   1.898       .  S
O87          C97   1.274       .  A
O88         Ni93   1.881       .  S
O88          C98   1.271       .  A
O89         Ni94   1.972       .  S
O89          C98   1.296       .  A
O90         Ni94   1.980       .  S
O90          C97   1.296       .  A
O91         Ni94   1.894       .  S
O91          C96   1.272       .  A
O92         Ni94   1.863       .  S
O92          C95   1.268       .  A
Ni93        Ni94   2.380       .  S
C95         C125   1.475       .  S
C96         C137   1.495       .  S
C97         C113   1.503       .  S
C98         C260   1.499       .  S
O99        Ni107   1.973       .  S
O99         C109   1.296       .  A
O100       Ni107   1.973       .  S
O100        C110   1.296       .  A
O101       Ni107   1.894       .  S
O101        C111   1.274       .  A
O102       Ni107   1.862       .  S
O102        C112   1.266       .  A
O103       Ni108   1.980       .  S
O103        C112   1.297       .  A
O104       Ni108   1.983       .  S
O104        C111   1.297       .  A
O105       Ni108   1.873       .  S
O105        C110   1.269       .  A
O106       Ni108   1.844       .  S
O106        C109   1.261       .  A
Ni107      Ni108   2.374       .  S
C109        C149   1.487       .  S
C110        C161   1.502       .  S
C111        C116   1.513       .  S
C112        C188   1.489       .  S
C113        C114   1.414       .  A
C113        C118   1.408       .  A
C114        C115   1.425       .  A
C114        H119   1.083       .  S
C115        C116   1.416       .  A
C115        O120   1.371       .  S
C116        C117   1.412       .  A
C117        C118   1.404       .  A
C117        H121   1.083       .  S
C118        O122   1.373       .  S
O120        H124   0.991       .  S
O122        H123   0.992       .  S
C125        C126   1.416       .  A
C125        C130   1.397       .  A
C126       C1039   1.400       .  A
C126        H131   1.084       .  S
C127       C1038   1.400   1_455  A
C127        C432   1.399   1_545  A
C127        O132   1.371       .  S
C128        C385   1.482       .  S
C128        C129   1.418       .  A
C128        C431   1.399   1_455  A
C129        C738   1.396   1_455  A
C129        H133   1.084       .  S
C130        C737   1.391       .  A
C130        O134   1.372       .  S
O132        H744   0.992       .  S
O134        H743   0.992       .  S
H135        O742   0.992       .  S
H136        O740   0.992       .  S
C137        C138   1.398       .  A
C137        C142   1.423       .  A
C138        C139   1.400       .  A
C138        H143   1.084       .  S
C139        C140   1.419       .  A
C139        O144   1.373       .  S
C140        C386   1.493       .  S
C140        C445   1.401       .  A
C141        C444   1.400   1_545  A
C141        C446   1.412   1_545  A
C141        H145   1.083       .  S
C142        C445   1.412       .  A
C142        O450   1.371       .  S
O144        H148   0.992       .  S
O146        C446   1.371   1_545  S
O146        H147   0.992   1_545  S
C149        C150   1.399       .  A
C149        C762   1.429       .  A
C150        C455   1.405       .  A
C150        H155   1.083       .  S
C151        C454   1.402       .  A
C151        C760   1.416   1_565  A
C151        O156   1.373   1_565  S
C152        C759   1.417   1_545  A
C152        C457   1.388   1_545  A
C153        C154   1.393       .  A
C153        C456   1.390       .  A
C153        H157   1.084       .  S
C154        C757   1.427       .  A
C154        O158   1.373       .  S
O156        H160   0.992       .  S
O158        H159   0.992       .  S
C161        C166   1.406       .  A
C161        C770   1.420       .  A
C162        C163   1.404       .  A
C162        C769   1.419   1_455  A
C162        H167   1.083       .  S
C163        C164   1.401       .  A
C163        O168   1.371       .  S
C164        C773   1.413   1_455  A
C165        C166   1.410       .  A
C165        C772   1.415       .  A
C165        H169   1.083       .  S
C166        O170   1.371       .  S
O168        H172   0.992       .  S
O170        H171   0.992       .  S
C173        C174   1.417       .  A
C173        C178   1.401       .  A
C174        C175   1.427       .  A
C174        H179   1.083       .  S
C175        C176   1.416       .  A
C175        O180   1.370       .  S
C176        C177   1.417       .  A
C177        C178   1.400       .  A
C177        H181   1.083       .  S
C178        O182   1.372       .  S
O180        H184   0.992   1_455  S
O182        H183   0.992       .  S
C185        C186   1.394   1_455  A
C185        C190   1.425   1_556  A
C186        C795   1.398   1_556  A
C186        H191   1.084       .  S
C187        C188   1.422       .  A
C187        C794   1.399   1_554  A
C187        O192   1.372       .  S
C188        C189   1.399       .  A
C189        C798   1.407       .  A
C189        H193   1.083       .  S
C190        C797   1.410       .  A
C190        O194   1.372   1_554  S
O192        H196   0.992       .  S
O194        H195   0.992       .  S
C197        C198   1.397       .  A
C197        C202   1.425       .  A
C198        C199   1.404       .  A
C198        H203   1.084       .  S
C199        C200   1.426       .  A
C199        O204   1.372       .  S
C200        C201   1.396       .  A
C201        C202   1.405       .  A
C201        H205   1.083       .  S
C202        O510   1.372       .  S
O204        H208   0.991       .  S
O206        C506   1.372       .  S
O206        H207   0.992       .  S
C209        C210   1.416       .  A
C209        C214   1.405       .  A
C210        C211   1.425       .  A
C210        H215   1.083       .  S
C211        C212   1.414       .  A
C211        O216   1.370       .  S
C212        C213   1.414       .  A
C213        C214   1.399       .  A
C213        H217   1.083       .  S
C214        O218   1.373       .  S
O216        H220   0.992       .  S
O218        H219   0.992       .  S
C221        C226   1.419       .  A
C221        C830   1.398       .  A
C222        C223   1.405   1_556  A
C222        C829   1.399       .  A
C222        H227   1.084       .  S
C223        C224   1.419       .  A
C223        O228   1.372       .  S
C224        C833   1.397       .  A
C225        C226   1.406   1_554  A
C225        C832   1.397       .  A
C225        H229   1.083       .  S
C226        O230   1.373       .  S
O228        H232   0.992       .  S
O230        H231   0.992       .  S
C233        C538   1.399   1_545  A
C233        C846   1.429   1_545  A
C234        C235   1.403       .  A
C234        C537   1.398       .  A
C234        H239   1.083       .  S
C235        C844   1.418       .  A
C235        O240   1.374       .  S
C236        C237   1.387       .  A
C236        C843   1.417       .  A
C237        C542   1.391       .  A
C237        H241   1.084       .  S
C238        C841   1.429   1_565  A
C238        C541   1.391       .  A
C238        O242   1.373   1_565  S
O240        H244   0.992       .  S
O242        H243   0.992   1_545  S
C245        C246   1.421       .  A
C245        C858   1.406       .  A
C246        C247   1.405       .  A
C246        H251   1.083       .  S
C247        C856   1.401       .  A
C247        O252   1.371       .  S
C248        C249   1.415   1_455  A
C248        C855   1.401       .  A
C249        C250   1.409       .  A
C249        H253   1.083       .  S
C250        C853   1.407       .  A
C250        O254   1.371       .  S
O252        H256   0.992       .  S
O254        H255   0.992       .  S
C257        C262   1.403       .  A
C257        C562   1.418       .  A
C258        C561   1.417   1_545  A
C258        C563   1.408       .  A
C258        H263   1.083       .  S
C259        C260   1.405       .  A
C259        C562   1.407       .  A
C259        O568   1.372       .  S
C260        C261   1.418       .  A
C261        C262   1.405       .  A
C261        H265   1.083       .  S
C262        O266   1.371       .  S
O264        C563   1.371       .  S
O264        H268   0.992       .  S
O266        H267   0.992       .  S
C269        C270   1.419       .  A
C269        C882   1.401       .  A
C270        C575   1.395   1_455  A
C270        H579   1.083       .  S
C271        C574   1.395   1_655  A
C271       C1184   1.397   1_545  A
C271        O276   1.372       .  S
C272        C315   1.480       .  S
C272        C273   1.419       .  A
C272       C1183   1.397       .  A
C273        C274   1.400       .  A
C273        H277   1.084       .  S
C274        C877   1.399       .  A
C274        O278   1.371       .  S
H275        C574   1.083       .  S
O276        H280   0.992       .  S
O278        H279   0.992       .  S
C281        C282   1.419       .  A
C281        C286   1.403       .  A
C282        C587   1.405       .  A
C282        H591   1.083       .  S
C283        C586   1.405       .  A
C283        C588   1.404   1_545  A
C283        O288   1.371       .  S
C284        C316   1.499       .  S
C284        C285   1.418       .  A
C284        C587   1.403       .  A
C285        C286   1.406       .  A
C285        H289   1.083       .  S
C286        O290   1.371       .  S
H287        C586   1.083       .  S
O288        H292   0.992       .  S
O290        H291   0.992       .  S
C293        C294   1.414       .  A
C293        C298   1.409       .  A
C294        C295   1.424       .  A
C294        H299   1.083   1_545  S
C295        C296   1.416       .  A
C295        O300   1.370       .  S
C296        C297   1.412       .  A
C297        C298   1.403       .  A
C297        H301   1.083       .  S
C298        O302   1.372       .  S
O300        H304   0.992       .  S
O302        H303   0.992       .  S
O305       Ni313   1.961       .  S
O305        C315   1.294       .  A
O306       Ni313   1.964       .  S
O306        C316   1.294       .  A
O307       Ni313   1.892       .  S
O307        C317   1.272       .  A
O308       Ni313   1.883       .  S
O309       Ni314   1.964       .  S
O309        C318   1.295       .  A
O310        C317   1.296       .  A
O311       Ni314   1.889       .  S
O312       Ni314   1.860       .  S
C317        C597   1.500       .  S
C318        C561   1.498       .  S
O319       Ni327   1.972       .  S
O319        C329   1.296       .  A
O320       Ni327   1.970       .  S
O320        C330   1.295       .  A
O321       Ni327   1.900       .  S
O321        C331   1.275       .  A
O322       Ni327   1.867       .  S
O322        C332   1.267       .  A
O323       Ni328   1.977       .  S
O323        C332   1.296       .  A
O324       Ni328   1.978       .  S
O324        C331   1.295       .  A
O325       Ni328   1.876       .  S
O325        C330   1.270       .  A
O326       Ni328   1.846       .  S
O326        C329   1.262       .  A
Ni327      Ni328   2.378       .  S
C329        C537   1.488       .  S
C330        C549   1.503       .  S
C331        C600   1.512       .  S
C332        C525   1.484       .  S
O333       Ni341   1.970       .  S
O333        C343   1.295       .  A
O334       Ni341   1.970       .  S
O334        C344   1.296       .  A
O335       Ni341   1.881       .  S
O335        C345   1.272       .  A
O336       Ni341   1.867       .  S
O336        C346   1.266       .  A
O337       Ni342   1.985   1_545  S
O337        C346   1.299   1_545  A
O338       Ni342   1.992       .  S
O338        C345   1.298       .  A
O339       Ni342   1.879       .  S
O339        C344   1.269       .  A
O340       Ni342   1.848       .  S
O340        C343   1.264       .  A
Ni341      Ni342   2.375       .  S
C343        C573   1.485       .  S
C344        C585   1.500       .  S
C345        C516   1.517       .  S
C346        C504   1.500       .  S
O347       Ni355   1.951       .  S
O347        C357   1.291       .  A
O348       Ni355   1.960       .  S
O348        C358   1.293       .  A
O349       Ni355   1.897       .  S
O349        C359   1.275       .  A
O350       Ni355   1.888       .  S
O350        C360   1.271       .  A
O351       Ni356   1.952       .  S
O351        C360   1.293   1_655  A
O352       Ni356   1.975   1_455  S
O352        C359   1.294       .  A
O353       Ni356   1.893       .  S
O353        C358   1.273   1_655  A
O354       Ni356   1.860   1_455  S
O354        C357   1.267       .  A
Ni355      Ni356   2.382   1_455  S
C357        C540   1.467       .  S
C358        C552   1.495       .  S
C359        C513   1.502       .  S
C360        C489   1.488       .  S
O361       Ni369   1.952       .  S
O361        C371   1.291       .  A
O362       Ni369   1.954       .  S
O362        C372   1.292       .  A
O363       Ni369   1.886       .  S
O363        C373   1.273       .  A
O364       Ni369   1.880       .  S
O364        C374   1.269       .  A
O365       Ni370   1.966       .  S
O365        C374   1.294   1_655  A
O366       Ni370   1.986   1_455  S
O366        C373   1.297       .  A
O367       Ni370   1.894       .  S
O367        C372   1.273   1_655  A
O368       Ni370   1.862   1_455  S
O368        C371   1.267       .  A
Ni369      Ni370   2.381   1_455  S
C371        C456   1.467       .  S
C372        C468   1.492       .  S
C373        C480   1.514       .  S
C374        C528   1.484       .  S
O375       Ni383   1.965       .  S
O375        C385   1.294       .  A
O376       Ni383   1.973       .  S
O376        C386   1.295       .  A
O377       Ni383   1.898       .  S
O377        C387   1.273       .  A
O378       Ni383   1.880       .  S
O379       Ni384   1.971       .  S
O379        C388   1.296       .  A
O380        C387   1.294       .  A
O381       Ni384   1.878       .  S
O382       Ni384   1.845       .  S
C387        C477   1.494       .  S
C388        C501   1.500       .  S
O389       Ni397   1.955       .  S
O389        C399   1.292       .  A
O390       Ni397   1.959       .  S
O390        C400   1.294       .  A
O391       Ni397   1.903       .  S
O391        C401   1.275       .  A
O392       Ni397   1.880       .  S
O392        C402   1.271       .  A
O393       Ni398   1.973   1_545  S
O393        C402   1.296   1_545  A
O394       Ni398   1.982       .  S
O394        C401   1.297       .  A
O395       Ni398   1.890       .  S
O395        C400   1.271       .  A
O396       Ni398   1.862       .  S
O396        C399   1.268       .  A
Ni397      Ni398   2.379       .  S
C399        C429   1.480       .  S
C400        C441   1.496       .  S
C401        C417   1.514       .  S
C402        C564   1.498       .  S
O403       Ni411   1.967       .  S
O403        C413   1.295       .  A
O404       Ni411   1.974       .  S
O404        C414   1.297       .  A
O405       Ni411   1.892       .  S
O405        C415   1.271       .  A
O406       Ni411   1.864       .  S
O406        C416   1.266       .  A
O407       Ni412   1.986       .  S
O407        C416   1.298       .  A
O408       Ni412   1.988       .  S
O408        C415   1.299       .  A
O409       Ni412   1.870       .  S
O409        C414   1.268       .  A
O410       Ni412   1.847       .  S
O410        C413   1.262       .  A
Ni411      Ni412   2.377       .  S
C413        C453   1.479       .  S
C414        C465   1.500       .  S
C415        C420   1.506       .  S
C416        C492   1.500       .  S
C417        C418   1.419       .  A
C417        C422   1.408       .  A
C418        C419   1.415       .  A
C418        H423   1.083       .  S
C419        C420   1.405       .  A
C419        O424   1.371       .  S
C420        C421   1.417       .  A
C421        C422   1.416       .  A
C421        H425   1.084       .  S
C422        O426   1.371       .  S
O424        H428   0.992       .  S
O426        H427   0.992       .  S
C429        C430   1.417   1_565  A
C429        C434   1.399       .  A
C430        C735   1.399       .  A
C430        H435   1.083       .  S
C431        C734   1.399       .  A
C431        O436   1.371   1_655  S
C432        C433   1.418       .  A
C433       C1042   1.391   1_455  A
C433        H437   1.083       .  S
C434       C1041   1.396       .  A
C434        O438   1.371       .  S
O436       H1048   0.992       .  S
O438       H1047   0.992       .  S
H439       O1046   0.992       .  S
H440       O1044   0.992       .  S
C441        C442   1.400       .  A
C441        C446   1.423       .  A
C442        C443   1.402       .  A
C442        H447   1.084       .  S
C443        C444   1.417       .  A
C443        O448   1.373       .  S
C445        H449   1.083       .  S
O448        H452   0.992       .  S
O450        H451   0.992       .  S
C453        C454   1.397       .  A
C453       C1066   1.425       .  A
C454        H459   1.083       .  S
C455       C1064   1.418       .  A
C455        O460   1.373       .  S
C456       C1063   1.416       .  A
C457        C458   1.388       .  A
C457        H461   1.085       .  S
C458       C1061   1.424       .  A
C458        O462   1.373       .  S
O460        H464   0.992       .  S
O462        H463   0.992       .  S
C465       C1074   1.420       .  A
C465        C470   1.406       .  A
C466       C1073   1.420   1_455  A
C466        C467   1.401       .  A
C466        H471   1.083       .  S
C467        C468   1.401       .  A
C467        O472   1.372       .  S
C468       C1077   1.415   1_455  A
C469       C1076   1.413       .  A
C469        C470   1.407       .  A
C469        H473   1.084       .  S
C470        O474   1.371       .  S
O472        H476   0.992       .  S
O474        H475   0.992       .  S
C477        C478   1.416       .  A
C477        C482   1.401       .  A
C478        C479   1.422       .  A
C478        H483   1.084       .  S
C479        C480   1.413       .  A
C479        O484   1.371   1_455  S
C480        C481   1.417       .  A
C481        C482   1.401       .  A
C481        H485   1.083       .  S
C482        O486   1.372       .  S
O484        H488   0.992       .  S
O486        H487   0.992       .  S
C489        C490   1.395   1_455  A
C489        C494   1.423   1_556  A
C490       C1099   1.398   1_556  A
C490        H495   1.084       .  S
C491       C1098   1.398   1_554  A
C491        C492   1.426       .  A
C491        O496   1.372       .  S
C492        C493   1.401       .  A
C493       C1102   1.411       .  A
C493        H497   1.083       .  S
C494       C1101   1.408       .  A
C494        O498   1.372   1_554  S
O496        H500   0.992       .  S
O498        H499   0.992       .  S
C501        C502   1.397       .  A
C501        C506   1.426   1_565  A
C502        C503   1.405       .  A
C502        H507   1.084       .  S
C503        C504   1.427       .  A
C503        O508   1.372       .  S
C504        C505   1.398   1_565  A
C505        C506   1.407       .  A
C505        H509   1.083       .  S
O508        H512   0.991       .  S
O510        H511   0.992       .  S
C513        C514   1.417       .  A
C513        C518   1.405       .  A
C514        C515   1.427       .  A
C514        H519   1.083       .  S
C515        C516   1.416       .  A
C515        O520   1.370       .  S
C516        C517   1.414       .  A
C517        C518   1.398       .  A
C517        H521   1.083       .  S
C518        O522   1.373       .  S
O520        H524   0.992       .  S
O522        H523   0.992       .  S
C525       C1134   1.398       .  A
C525        C530   1.419       .  A
C526       C1133   1.398       .  A
C526        C527   1.404   1_556  A
C526        H531   1.084       .  S
C527        C528   1.419       .  A
C527        O532   1.372       .  S
C528       C1137   1.397   1_455  A
C529       C1136   1.397       .  A
C529        C530   1.408   1_554  A
C529        H533   1.083       .  S
C530        O534   1.373       .  S
O532        H536   0.992       .  S
O534        H535   0.992       .  S
C537       C1150   1.430       .  A
C538        C539   1.405       .  A
C538        H543   1.083       .  S
C539       C1148   1.417       .  A
C539        O544   1.374       .  S
C540       C1147   1.417       .  A
C540        C541   1.388       .  A
C541        H545   1.084       .  S
C542       C1145   1.430       .  A
C542        O546   1.373       .  S
O544        H548   0.992       .  S
O546        H547   0.992       .  S
C549        C550   1.420       .  A
C549       C1162   1.408       .  A
C550        C551   1.403       .  A
C550        H555   1.083       .  S
C551       C1160   1.401       .  A
C551        O556   1.371       .  S
C552       C1159   1.401       .  A
C552        C553   1.415   1_455  A
C553        C554   1.409       .  A
C553        H557   1.083       .  S
C554       C1157   1.407       .  A
C554        O558   1.371       .  S
O556        H560   0.992       .  S
O558        H559   0.992       .  S
C561        C566   1.403       .  A
C562        H567   1.083       .  S
C563        C564   1.405   1_545  A
C564        C565   1.417       .  A
C565        C566   1.405       .  A
C565        H569   1.083       .  S
C566        O570   1.371       .  S
O568        H572   0.992       .  S
O570        H571   0.992       .  S
C573        C574   1.420   1_565  A
C573       C1186   1.399       .  A
C575        C880   1.397       .  A
C575        O580   1.372       .  S
C576        C879   1.397   1_565  A
C576        C577   1.417       .  A
C577        C578   1.403       .  A
C577        H581   1.084       .  S
C578       C1181   1.401       .  A
C578        O582   1.371       .  S
O580        H584   0.992       .  S
O582        H583   0.992       .  S
C585        C586   1.419   1_565  A
C585        C590   1.403       .  A
C587        O592   1.371       .  S
C588        C589   1.418       .  A
C589        C590   1.406       .  A
C589        H593   1.083       .  S
C590        O594   1.371       .  S
O592        H596   0.992       .  S
O594        H595   0.992       .  S
C597        C598   1.413       .  A
C597        C602   1.409       .  A
C598        C599   1.422       .  A
C598        H603   1.083       .  S
C599        C600   1.415       .  A
C599        O604   1.370       .  S
C600        C601   1.411       .  A
C601        C602   1.403       .  A
C601        H605   1.083       .  S
C602        O606   1.372       .  S
O604        H608   0.991       .  S
O606        H607   0.992       .  S
O609       Ni617   1.961       .  S
O609        C619   1.294   1_545  A
O610       Ni617   1.964       .  S
O610        C620   1.294   1_545  A
O611       Ni617   1.892       .  S
O611        C621   1.273       .  A
O612       Ni617   1.884       .  S
O612        C926   1.271   1_545  A
O613       Ni618   1.964       .  S
O613        C622   1.295       .  A
O614       Ni922   1.979       .  S
O614        C621   1.295   1_565  A
O615       Ni618   1.889       .  S
O615        C924   1.272       .  A
O616       Ni618   1.861       .  S
O616        C923   1.267       .  A
Ni617      Ni922   2.378   1_545  S
Ni618       O918   1.977       .  S
Ni618      Ni921   2.379       .  S
C619        O920   1.266       .  A
C619       C1184   1.479       .  S
C620        O919   1.271       .  A
C620       C1196   1.499       .  S
C621        C901   1.500       .  S
C622        O916   1.272       .  A
C622        C865   1.498       .  S
O623       Ni631   1.973       .  S
O623        C633   1.296   1_655  A
O624       Ni631   1.970       .  S
O624        C634   1.295       .  A
O625       Ni631   1.898       .  S
O625        C635   1.274       .  A
O626       Ni631   1.866       .  S
O626        C636   1.266   1_655  A
O627       Ni632   1.977       .  S
O627        C636   1.296       .  A
O628       Ni632   1.979   1_655  S
O628        C635   1.296       .  A
O629       Ni632   1.875       .  S
O629        C634   1.269   1_455  A
O630       Ni632   1.845       .  S
O630        C633   1.262       .  A
Ni631      Ni632   2.378   1_655  S
C633        C841   1.488       .  S
C634        C853   1.502       .  S
C635        C904   1.511       .  S
C636        C829   1.483       .  S
O637       Ni645   1.970       .  S
O637        C647   1.295       .  A
O638       Ni645   1.970       .  S
O638        C648   1.295       .  A
O639       Ni645   1.883       .  S
O639        C649   1.272       .  A
O640       Ni645   1.868       .  S
O640        C650   1.266       .  A
O641       Ni646   1.985       .  S
O641        C650   1.299       .  A
O642       Ni646   1.991       .  S
O642        C649   1.298       .  A
O643       Ni646   1.879       .  S
O643        C648   1.269       .  A
O644       Ni646   1.849       .  S
O644        C647   1.264       .  A
Ni645      Ni646   2.375       .  S
C647        C877   1.485       .  S
C648        C889   1.500       .  S
C649        C820   1.518       .  S
C650        C808   1.500       .  S
O651       Ni659   1.953       .  S
O651        C661   1.292       .  A
O652       Ni659   1.961       .  S
O652        C662   1.293       .  A
O653       Ni659   1.897       .  S
O653        C663   1.275       .  A
O654       Ni659   1.887       .  S
O654        C664   1.271       .  A
O655       Ni660   1.954       .  S
O655        C664   1.293       .  A
O656       Ni660   1.975       .  S
O656        C663   1.294       .  A
O657       Ni660   1.891       .  S
O657        C662   1.273       .  A
O658       Ni660   1.859       .  S
O658        C661   1.267       .  A
Ni659      Ni660   2.382       .  S
C661        C844   1.469       .  S
C662        C856   1.495       .  S
C663        C817   1.501       .  S
C664        C793   1.488       .  S
O665       Ni673   1.949       .  S
O665        C675   1.290       .  A
O666       Ni673   1.955       .  S
O666        C676   1.292       .  A
O667       Ni673   1.888       .  S
O667        C677   1.273       .  A
O668       Ni673   1.883       .  S
O668        C678   1.270       .  A
O669       Ni674   1.965       .  S
O669        C678   1.294       .  A
O670       Ni674   1.986       .  S
O670        C677   1.297       .  A
O671       Ni674   1.894       .  S
O671        C676   1.273       .  A
O672       Ni674   1.862       .  S
O672        C675   1.267       .  A
Ni673      Ni674   2.382       .  S
C675        C760   1.463       .  S
C676        C772   1.492       .  S
C677        C784   1.512       .  S
C678        C832   1.486       .  S
O679       Ni687   1.965       .  S
O679        C689   1.294   1_545  A
O680       Ni687   1.974       .  S
O680        C690   1.295   1_545  A
O681       Ni687   1.901       .  S
O681        C691   1.273       .  A
O682       Ni687   1.882       .  S
O682        C996   1.270   1_545  A
O683       Ni688   1.971       .  S
O683        C692   1.296       .  A
O684       Ni992   1.973       .  S
O684        C691   1.294   1_565  A
O685       Ni688   1.879       .  S
O685        C994   1.269       .  A
O686       Ni688   1.847       .  S
O686        C993   1.265       .  A
Ni687      Ni992   2.381   1_545  S
Ni688       O988   1.975       .  S
Ni688      Ni991   2.381       .  S
C689        O990   1.265       .  A
C689       C1040   1.482       .  S
C690        O989   1.269       .  A
C690       C1052   1.494       .  S
C691        C781   1.496       .  S
C692        O986   1.271       .  A
C692        C805   1.501       .  S
O693       Ni701   1.955       .  S
O693        C703   1.292       .  A
O694       Ni701   1.959       .  S
O694        C704   1.294       .  A
O695       Ni701   1.903       .  S
O695        C705   1.275       .  A
O696       Ni701   1.880       .  S
O696        C706   1.271       .  A
O697       Ni702   1.974       .  S
O697        C706   1.296       .  A
O698       Ni702   1.982       .  S
O698        C705   1.297       .  A
O699       Ni702   1.890       .  S
O699        C704   1.271       .  A
O700       Ni702   1.862       .  S
O700        C703   1.268       .  A
Ni701      Ni702   2.379       .  S
C703        C733   1.480       .  S
C704        C745   1.496       .  S
C705        C721   1.515       .  S
C706        C868   1.498       .  S
O707       Ni715   1.966       .  S
O707        C717   1.295   1_655  A
O708       Ni715   1.973       .  S
O708        C718   1.296       .  A
O709       Ni715   1.894       .  S
O709        C719   1.271       .  A
O710       Ni715   1.862       .  S
O710        C720   1.266   1_655  A
O711       Ni716   1.986       .  S
O711        C720   1.298       .  A
O712       Ni716   1.987       .  S
O712        C719   1.298   1_455  A
O713       Ni716   1.871       .  S
O713        C718   1.268   1_455  A
O714       Ni716   1.850       .  S
O714        C717   1.262       .  A
Ni715      Ni716   2.377   1_655  S
C717        C757   1.483       .  S
C718        C769   1.499       .  S
C719        C724   1.505       .  S
C720        C796   1.499       .  S
C721        C722   1.419       .  A
C721        C726   1.409       .  A
C722        C723   1.414       .  A
C722        H727   1.083       .  S
C723        C724   1.405       .  A
C723        O728   1.371       .  S
C724        C725   1.417       .  A
C725        C726   1.417       .  A
C725        H729   1.084       .  S
C726        O730   1.371       .  S
O728        H732   0.992       .  S
O730        H731   0.992       .  S
C733        C734   1.417       .  A
C733        C738   1.399       .  A
C734        H739   1.083       .  S
C735       C1040   1.399   1_545  A
C735        O740   1.371       .  S
C736        C993   1.481       .  S
C736       C1039   1.400       .  A
C736        C737   1.418       .  A
C737        H741   1.083       .  S
C738        O742   1.371       .  S
C745        C746   1.399       .  A
C745        C750   1.424       .  A
C746        C747   1.401       .  A
C746        H751   1.084       .  S
C747        C748   1.417       .  A
C747        O752   1.373       .  S
C748        C994   1.491       .  S
C748       C1053   1.400       .  A
C749       C1052   1.401   1_545  A
C749       C1054   1.412       .  A
C749        H753   1.083       .  S
C750       C1053   1.412       .  A
C750       O1058   1.371       .  S
O752        H756   0.992       .  S
O754       C1054   1.371       .  S
O754        H755   0.992       .  S
C757        C758   1.397   1_455  A
C758       C1063   1.401   1_655  A
C758        H763   1.083       .  S
C759       C1062   1.406       .  A
C759        O764   1.373   1_465  S
C760       C1065   1.390   1_545  A
C761       C1064   1.387       .  A
C761        C762   1.390       .  A
C761        H765   1.085       .  S
C762        O766   1.373       .  S
O764        H768   0.992       .  S
O766        H767   0.992       .  S
C769        C774   1.407       .  A
C770        C771   1.401       .  A
C770        H775   1.083       .  S
C771        C772   1.401       .  A
C771        O776   1.372       .  S
C773        C774   1.408       .  A
C773        H777   1.084       .  S
C774        O778   1.371       .  S
O776        H780   0.992       .  S
O778        H779   0.992       .  S
C781        C782   1.416       .  A
C781        C786   1.401       .  A
C782        C783   1.421       .  A
C782        H787   1.084       .  S
C783        C784   1.411       .  A
C783        O788   1.371       .  S
C784        C785   1.416       .  A
C785        C786   1.404       .  A
C785        H789   1.083       .  S
C786        O790   1.371       .  S
O788        H792   0.992       .  S
O790        H791   0.992   1_545  S
C793        C794   1.395       .  A
C793        C798   1.423   1_556  A
C794        H799   1.084       .  S
C795        C796   1.426   1_655  A
C795        O800   1.372       .  S
C796        C797   1.400       .  A
C797        H801   1.083       .  S
C798        O802   1.372   1_554  S
O800        H804   0.992       .  S
O802        H803   0.992       .  S
C805        C806   1.398       .  A
C805        C810   1.426       .  A
C806        C807   1.405       .  A
C806        H811   1.084       .  S
C807        C808   1.427       .  A
C807        O812   1.372       .  S
C808        C809   1.398       .  A
C809        C810   1.407       .  A
C809        H813   1.083       .  S
C810       O1118   1.372       .  S
O812        H816   0.991       .  S
O814       C1114   1.372       .  S
O814        H815   0.992       .  S
C817        C818   1.416       .  A
C817        C822   1.404       .  A
C818        C819   1.427       .  A
C818        H823   1.083       .  S
C819        C820   1.416       .  A
C819        O824   1.370       .  S
C820        C821   1.414       .  A
C821        C822   1.399       .  A
C821        H825   1.083       .  S
C822        O826   1.373       .  S
O824        H828   0.992       .  S
O826        H827   0.992       .  S
C829        C834   1.419       .  A
C830        C831   1.405   1_556  A
C830        H835   1.084       .  S
C831        C832   1.419       .  A
C831        O836   1.372       .  S
C833        C834   1.408   1_554  A
C833        H837   1.083   1_455  S
C834        O838   1.373   1_455  S
O836        H840   0.992       .  S
O838        H839   0.992       .  S
C841       C1146   1.399   1_445  A
C842       C1145   1.399   1_655  A
C842        C843   1.405   1_655  A
C842        H847   1.083       .  S
C843        O848   1.374   1_455  S
C844        C845   1.388       .  A
C845       C1150   1.392       .  A
C845        H849   1.084       .  S
C846       C1149   1.391       .  A
C846        O850   1.372   1_565  S
O848        H852   0.992       .  S
O850        H851   0.992   1_545  S
C853        C854   1.420   1_655  A
C854        C855   1.403       .  A
C854        H859   1.083       .  S
C855        O860   1.371       .  S
C856        C857   1.415       .  A
C857        C858   1.408       .  A
C857        H861   1.083       .  S
C858        O862   1.371       .  S
O860        H864   0.992       .  S
O862        H863   0.992       .  S
C865       C1170   1.417       .  A
C865        C870   1.404       .  A
C866       C1169   1.418   1_545  A
C866       C1171   1.407       .  A
C866        H871   1.083       .  S
C867       C1170   1.408       .  A
C867        C868   1.405       .  A
C867       O1176   1.371       .  S
C868        C869   1.417       .  A
C869        C870   1.405       .  A
C869        H873   1.083       .  S
C870        O874   1.371       .  S
O872       C1171   1.372       .  S
O872        H876   0.992       .  S
O874        H875   0.992       .  S
C877        C878   1.419       .  A
C878       C1183   1.395       .  A
C878       H1187   1.083       .  S
C879       C1182   1.395       .  A
C879        O884   1.372       .  S
C880        C923   1.477       .  S
C880        C881   1.417       .  A
C881        C882   1.403   1_655  A
C881        H885   1.084       .  S
C882        O886   1.371       .  S
H883       C1182   1.083       .  S
O884        H888   0.992       .  S
O886        H887   0.992       .  S
C889        C890   1.419       .  A
C889        C894   1.403       .  A
C890       C1195   1.405       .  A
C890       H1199   1.083       .  S
C891       C1194   1.405       .  A
C891       C1196   1.404   1_545  A
C891        O896   1.371       .  S
C892        C924   1.499       .  S
C892       C1195   1.404       .  A
C892        C893   1.418       .  A
C893        C894   1.406       .  A
C893        H897   1.083       .  S
C894        O898   1.371       .  S
H895       C1194   1.083       .  S
O896        H900   0.992       .  S
O898        H899   0.992       .  S
C901        C902   1.413       .  A
C901        C906   1.410       .  A
C902        C903   1.423       .  A
C902        H907   1.083   1_545  S
C903        C904   1.415       .  A
C903        O908   1.370       .  S
C904        C905   1.410       .  A
C905        C906   1.403       .  A
C905        H909   1.083       .  S
C906        O910   1.372       .  S
O908        H912   0.991   1_655  S
O910        H911   0.992       .  S
O913       Ni921   1.958       .  S
O913        C923   1.293       .  A
O914       Ni921   1.963       .  S
O914        C924   1.294       .  A
O915       Ni921   1.899       .  S
O915        C925   1.274       .  A
O916       Ni921   1.891       .  S
O917       Ni922   1.969       .  S
O917        C926   1.296       .  A
O918        C925   1.294       .  A
O919       Ni922   1.887       .  S
O920       Ni922   1.855       .  S
C925       C1205   1.503       .  S
C926       C1169   1.499       .  S
O927       Ni935   1.974       .  S
O927        C937   1.296       .  A
O928       Ni935   1.971       .  S
O928        C938   1.296       .  A
O929       Ni935   1.898       .  S
O929        C939   1.275       .  A
O930       Ni935   1.863       .  S
O930        C940   1.266   1_655  A
O931       Ni936   1.976       .  S
O931        C940   1.296       .  A
O932       Ni936   1.980   1_655  S
O932        C939   1.296       .  A
O933       Ni936   1.875       .  S
O933        C938   1.269   1_455  A
O934       Ni936   1.844       .  S
O934        C937   1.261   1_455  A
Ni935      Ni936   2.377   1_655  S
C937       C1145   1.489   1_655  S
C938       C1157   1.503       .  S
C939       C1208   1.513       .  S
C940       C1133   1.482       .  S
O941       Ni949   1.972       .  S
O941        C951   1.295       .  A
O942       Ni949   1.969       .  S
O942        C952   1.295       .  A
O943       Ni949   1.883       .  S
O943        C953   1.272       .  A
O944       Ni949   1.862       .  S
O944        C954   1.265       .  A
O945       Ni950   1.984   1_545  S
O945        C954   1.299   1_545  A
O946       Ni950   1.990       .  S
O946        C953   1.298       .  A
O947       Ni950   1.878       .  S
O947        C952   1.269       .  A
O948       Ni950   1.852       .  S
O948        C951   1.265       .  A
Ni949      Ni950   2.376       .  S
C951       C1181   1.489       .  S
C952       C1193   1.499       .  S
C953       C1124   1.516       .  S
C954       C1112   1.495       .  S
O955       Ni963   1.951       .  S
O955        C965   1.291       .  A
O956       Ni963   1.958       .  S
O956        C966   1.293       .  A
O957       Ni963   1.898       .  S
O957        C967   1.275       .  A
O958       Ni963   1.891       .  S
O958        C968   1.272       .  A
O959       Ni964   1.955       .  S
O959        C968   1.294       .  A
O960       Ni964   1.976       .  S
O960        C967   1.294       .  A
O961       Ni964   1.896       .  S
O961        C966   1.273       .  A
O962       Ni964   1.859       .  S
O962        C965   1.266       .  A
Ni963      Ni964   2.382       .  S
C965       C1148   1.465       .  S
C966       C1160   1.493       .  S
C967       C1121   1.502       .  S
C968       C1097   1.495       .  S
O969       Ni977   1.955       .  S
O969        C979   1.292       .  A
O970       Ni977   1.960       .  S
O970        C980   1.293       .  A
O971       Ni977   1.887       .  S
O971        C981   1.273       .  A
O972       Ni977   1.880       .  S
O972        C982   1.269       .  A
O973       Ni978   1.970       .  S
O973        C982   1.295       .  A
O974       Ni978   1.994       .  S
O974        C981   1.299       .  A
O975       Ni978   1.891       .  S
O975        C980   1.272       .  A
O976       Ni978   1.858       .  S
O976        C979   1.266       .  A
Ni977      Ni978   2.381       .  S
C979       C1064   1.466       .  S
C980       C1076   1.490       .  S
C981       C1088   1.521       .  S
C982       C1136   1.488       .  S
O983       Ni991   1.964       .  S
O983        C993   1.294       .  A
O984       Ni991   1.973       .  S
O984        C994   1.295       .  A
O985       Ni991   1.901       .  S
O985        C995   1.274       .  A
O986       Ni991   1.887       .  S
O987       Ni992   1.970       .  S
O987        C996   1.296       .  A
O988        C995   1.295       .  A
O989       Ni992   1.877       .  S
O990       Ni992   1.852       .  S
C995       C1085   1.499       .  S
C996       C1109   1.496       .  S
O997      Ni1005   1.951       .  S
O997       C1007   1.292       .  A
O998      Ni1005   1.952       .  S
O998       C1008   1.293       .  A
O999      Ni1005   1.896       .  S
O999       C1009   1.273       .  A
O1000     Ni1005   1.881       .  S
O1000      C1010   1.271       .  A
O1001     Ni1006   1.973   1_545  S
O1001      C1010   1.296   1_545  A
O1002     Ni1006   1.981       .  S
O1002      C1009   1.296       .  A
O1003     Ni1006   1.893       .  S
O1003      C1008   1.272       .  A
O1004     Ni1006   1.861       .  S
O1004      C1007   1.267       .  A
Ni1005    Ni1006   2.380       .  S
C1007      C1037   1.475       .  S
C1008      C1049   1.496       .  S
C1009      C1025   1.503       .  S
C1010      C1172   1.499       .  S
O1011     Ni1019   1.971       .  S
O1011      C1021   1.295   1_655  A
O1012     Ni1019   1.972       .  S
O1012      C1022   1.296       .  A
O1013     Ni1019   1.891       .  S
O1013      C1023   1.273       .  A
O1014     Ni1019   1.862       .  S
O1014      C1024   1.267   1_655  A
O1015     Ni1020   1.979       .  S
O1015      C1024   1.296       .  A
O1016     Ni1020   1.985   1_655  S
O1016      C1023   1.297       .  A
O1017     Ni1020   1.873       .  S
O1017      C1022   1.269   1_455  A
O1018     Ni1020   1.844       .  S
O1018      C1021   1.262       .  A
Ni1019    Ni1020   2.374   1_655  S
C1021      C1061   1.481       .  S
C1022      C1073   1.501       .  S
C1023      C1028   1.513       .  S
C1024      C1100   1.489       .  S
C1025      C1026   1.415       .  A
C1025      C1030   1.408       .  A
C1026      C1027   1.424       .  A
C1026      H1031   1.083       .  S
C1027      C1028   1.416       .  A
C1027      O1032   1.371       .  S
C1028      C1029   1.412       .  A
C1029      C1030   1.404       .  A
C1029      H1033   1.083       .  S
C1030      O1034   1.373       .  S
O1032      H1036   0.992   1_655  S
O1034      H1035   0.992       .  S
C1037      C1038   1.417   1_565  A
C1037      C1042   1.397       .  A
C1038      H1043   1.084       .  S
C1039      O1044   1.371       .  S
C1040      C1041   1.418       .  A
C1041      H1045   1.084       .  S
C1042      O1046   1.372       .  S
C1049      C1050   1.398       .  A
C1049      C1054   1.424   1_565  A
C1050      C1051   1.399       .  A
C1050      H1055   1.084       .  S
C1051      C1052   1.420       .  A
C1051      O1056   1.373       .  S
C1053      H1057   1.083       .  S
O1056      H1060   0.992       .  S
O1058      H1059   0.992       .  S
C1061      C1062   1.399       .  A
C1062      H1067   1.083   1_455  S
C1063      O1068   1.373   1_455  S
C1065      C1066   1.391       .  A
C1065      H1069   1.085       .  S
C1066      O1070   1.373       .  S
O1068      H1072   0.992       .  S
O1070      H1071   0.992       .  S
C1073      C1078   1.406       .  A
C1074      C1075   1.405       .  A
C1074      H1079   1.083       .  S
C1075      C1076   1.401       .  A
C1075      O1080   1.371       .  S
C1077      C1078   1.409       .  A
C1077      H1081   1.083       .  S
C1078      O1082   1.371       .  S
O1080      H1084   0.992       .  S
O1082      H1083   0.992       .  S
C1085      C1086   1.417       .  A
C1085      C1090   1.401       .  A
C1086      C1087   1.426       .  A
C1086      H1091   1.083       .  S
C1087      C1088   1.415       .  A
C1087      O1092   1.371       .  S
C1088      C1089   1.418       .  A
C1089      C1090   1.402       .  A
C1089      H1093   1.083       .  S
C1090      O1094   1.372       .  S
O1092      H1096   0.992       .  S
O1094      H1095   0.992       .  S
C1097      C1098   1.395       .  A
C1097      C1102   1.425   1_556  A
C1098      H1103   1.084       .  S
C1099      C1100   1.421   1_655  A
C1099      O1104   1.372       .  S
C1100      C1101   1.399       .  A
C1101      H1105   1.083       .  S
C1102      O1106   1.372   1_554  S
O1104      H1108   0.992       .  S
O1106      H1107   0.992       .  S
C1109      C1110   1.397       .  A
C1109      C1114   1.425   1_565  A
C1110      C1111   1.404       .  A
C1110      H1115   1.084       .  S
C1111      C1112   1.426       .  A
C1111      O1116   1.372       .  S
C1112      C1113   1.397   1_565  A
C1113      C1114   1.406       .  A
C1113      H1117   1.083       .  S
O1116      H1120   0.992       .  S
O1118      H1119   0.992       .  S
C1121      C1122   1.416       .  A
C1121      C1126   1.406       .  A
C1122      C1123   1.425       .  A
C1122      H1127   1.083       .  S
C1123      C1124   1.415       .  A
C1123      O1128   1.370       .  S
C1124      C1125   1.414       .  A
C1125      C1126   1.400       .  A
C1125      H1129   1.083       .  S
C1126      O1130   1.373       .  S
O1128      H1132   0.992       .  S
O1130      H1131   0.992       .  S
C1133      C1138   1.419   1_455  A
C1134      C1135   1.405   1_556  A
C1134      H1139   1.084       .  S
C1135      C1136   1.419       .  A
C1135      O1140   1.372       .  S
C1137      C1138   1.406   1_554  A
C1137      H1141   1.083       .  S
C1138      O1142   1.373       .  S
O1140      H1144   0.992       .  S
O1142      H1143   0.992       .  S
C1146      C1147   1.404   1_655  A
C1146      H1151   1.083       .  S
C1147      O1152   1.374   1_455  S
C1148      C1149   1.388       .  A
C1149      H1153   1.085       .  S
C1150      O1154   1.373       .  S
O1152      H1156   0.992       .  S
O1154      H1155   0.993       .  S
C1157      C1158   1.421   1_655  A
C1158      C1159   1.405       .  A
C1158      H1163   1.083       .  S
C1159      O1164   1.371       .  S
C1160      C1161   1.415       .  A
C1161      C1162   1.410       .  A
C1161      H1165   1.083       .  S
C1162      O1166   1.371       .  S
O1164      H1168   0.992       .  S
O1166      H1167   0.992       .  S
C1169      C1174   1.403       .  A
C1170      H1175   1.083       .  S
C1171      C1172   1.405   1_545  A
C1172      C1173   1.418       .  A
C1173      C1174   1.405       .  A
C1173      H1177   1.083       .  S
C1174      O1178   1.371       .  S
O1176      H1180   0.992       .  S
O1178      H1179   0.992       .  S
C1181      C1182   1.419   1_565  A
C1183      O1188   1.372       .  S
C1184      C1185   1.418       .  A
C1185      C1186   1.400   1_655  A
C1185      H1189   1.084       .  S
C1186      O1190   1.371       .  S
O1188      H1192   0.992       .  S
O1190      H1191   0.992       .  S
C1193      C1194   1.419   1_565  A
C1193      C1198   1.403       .  A
C1195      O1200   1.371       .  S
C1196      C1197   1.418       .  A
C1197      C1198   1.406       .  A
C1197      H1201   1.083       .  S
C1198      O1202   1.371       .  S
O1200      H1204   0.992       .  S
O1202      H1203   0.992       .  S
C1205      C1206   1.413       .  A
C1205      C1210   1.409       .  A
C1206      C1207   1.424       .  A
C1206      H1211   1.083       .  S
C1207      C1208   1.416       .  A
C1207      O1212   1.370       .  S
C1208      C1209   1.411       .  A
C1209      C1210   1.403       .  A
C1209      H1213   1.083       .  S
C1210      O1214   1.372       .  S
O1212      H1216   0.992   1_655  S
O1214      H1215   0.992       .  S
