geometry optimzed in LAMMPS
_audit_creation_date              2020-12-01 
_audit_creation_method            'lammps2cif' 
_symmetry_space_group_name_H-M    'P1' 
_symmetry_Int_Tables_number       1 
_symmetry_cell_setting            triclinic 
loop_ 
_symmetry_equiv_pos_as_xyz 
  x,y,z 
_cell_length_a                    33.30114637 
_cell_length_b                    34.93769131579594 
_cell_length_c                    33.39466105120337 
_cell_angle_alpha                 93.71438134668318 
_cell_angle_beta                  91.76988598059336 
_cell_angle_gamma                 90.10728246250547 
loop_ 
_atom_site_label 
_atom_site_type_symbol 
_atom_site_fract_x 
_atom_site_fract_y 
_atom_site_fract_z 
_atom_site_charge 
C1          C  0.25116909  0.29180519  0.72293897     0.86700
C2          C  0.21418665  0.28843091  0.74873049    -0.53600
C3          C  0.21227475  0.25487836  0.76773116     0.09600
C4          C  0.24716327  0.22717595  0.75789680     0.20600
C5          C  0.28689296  0.28532170  0.75212405    -0.54300
C6          C  0.28447829  0.25149978  0.77032846     0.09700
C7          C  0.25027634  0.25638242  0.69420622    -0.53800
C8          C  0.24743674  0.22264119  0.71155480     0.10300
H9          H  0.19311783  0.31181985  0.75370667     0.14800
H10         H  0.24563041  0.19963022  0.77262467     0.00500
H11         H  0.31064063  0.30592002  0.76003686     0.15100
H12         H  0.25254237  0.25804142  0.66192983     0.14900
O13         O  0.15487194  0.06673304  0.49776568    -0.75100
O14         O  0.20898682  0.10574342  0.49024937    -0.54000
C15         C  0.17116677  0.09987281  0.49371478     0.78600
O16         O  0.26616480  0.43601073  0.61361534    -0.59700
O17         O  0.25041992  0.38778043  0.56621292    -0.52700
C18         C  0.25791995  0.40103996  0.60254308     0.70600
O19         O  0.26467915  0.06270935  0.60826240    -0.74300
O20         O  0.26391073  0.10360285  0.55758880    -0.54800
C21         C  0.26345410  0.09626397  0.59501080     0.76700
O22         O  0.14146531  0.43563869  0.50612655    -0.59400
O23         O  0.18655366  0.38637456  0.50230588    -0.52500
C24         C  0.15064171  0.39971016  0.50508266     0.73200
Zr25       Zr  0.17568890  0.49749892  0.50162697     2.54700
O26         O  0.12931712  0.50826444  0.55609996    -0.80000
O27         O  0.12330753  0.49586521  0.44904531    -0.93400
Zr28       Zr  0.26517830  0.49671461  0.58339313     2.61700
O29         O  0.21103441  0.00449527  0.62967702    -0.98300
O30         O  0.32271906  0.50307555  0.63029452    -0.80400
O31         O  0.22239016  0.03512926  0.53762823    -0.83800
O32         O  0.21616435  0.46057551  0.54433667    -2.18500
O33         O  0.24836498  0.41659756  0.38834104    -0.67100
O34         O  0.25109573  0.37619577  0.43926843    -0.51700
C35         C  0.24964563  0.38313175  0.40177643     0.71600
O36         O  0.37801109  0.04584262  0.49939915    -0.60100
O37         O  0.33281140  0.09486674  0.49665434    -0.52000
C38         C  0.36889315  0.08172650  0.49903332     0.73400
O39         O  0.36449010  0.41407870  0.50262665    -0.71400
O40         O  0.30980017  0.37422612  0.50178521    -0.50100
C41         C  0.34782163  0.38056478  0.50249283     0.74800
O42         O  0.26089383  0.04289519  0.38178140    -0.66800
O43         O  0.27122922  0.09243512  0.42906608    -0.54000
C44         C  0.26706241  0.07827118  0.39249095     0.73200
Zr45       Zr  0.25533530  0.48141871  0.41687922     2.77500
O46         O  0.30374406  0.47254330  0.36390042    -0.97500
O47         O  0.19830124  0.48191596  0.36950513    -0.78300
Zr48       Zr  0.34454001  0.48195622  0.49946515     2.70100
O49         O  0.39369574  0.47402285  0.44706776    -0.79600
O50         O  0.39633853  0.48351651  0.55263619    -0.98700
Zr51       Zr  0.26696717  0.06440800  0.49417760     2.21500
Zr52       Zr  0.25238392  0.41628762  0.50190584     2.11100
O53         O  0.29714318  0.44523800  0.45843044    -2.47400
O54         O  0.30411687  0.01998216  0.45281523    -0.79400
O55         O  0.21053497  0.45219944  0.45938973    -0.71600
O56         O  0.30742003  0.02788855  0.53785457    -2.32500
O57         O  0.21843911  0.02817346  0.45335461    -2.28700
O58         O  0.30140430  0.45166183  0.54293896    -0.73300
H59         H  0.19924108  0.44724379  0.56189472     0.78700
H60         H  0.32546077  0.04420263  0.55457228     0.79700
H61         H  0.31123621  0.42616533  0.44218326     0.82000
H62         H  0.20318721  0.04445257  0.43629646     0.79600
H63         H  0.33637739  0.98056469  0.62010562     0.42600
H64         H  0.39264811  0.45943879  0.56618489     0.41600
H65         H  0.37948268  0.96242196  0.42173700     0.41300
H66         H  0.31880564  0.44912182  0.37004521     0.39200
H67         H  0.18035982  0.46124806  0.37739946     0.42300
H68         H  0.12837200  0.02176521  0.42952071     0.37100
H69         H  0.14026146  0.01473674  0.57327458     0.43200
H70         H  0.20108682  0.47716195  0.63351819     0.39600
H71         H  0.28735002  0.46493182  0.33942045     0.44600
H72         H  0.09952538  0.50714916  0.46235991     0.43300
H73         H  0.23351748  0.49844201  0.66185400     0.43400
H74         H  0.42182223  0.47989819  0.53837741     0.43800
N75         N  0.01356272  0.29857571  0.50228014    -0.36400
N76         N  0.07226292  0.23749565  0.49976224    -0.57000
N77         N  0.00687216  0.18206196  0.50183139    -0.36400
N78         N  0.44685320  0.24415569  0.50630022    -0.57000
C79         C  0.04662867  0.31619029  0.48944027     0.27200
C80         C  0.47954447  0.32454504  0.51535044     0.27200
C81         C  0.03864152  0.16003134  0.49098436     0.27200
C82         C  0.47355777  0.16395606  0.48960800     0.27200
C83         C  0.09620054  0.26827385  0.50923341     0.35800
C84         C  0.09283915  0.20632986  0.51077658     0.35800
C85         C  0.42536527  0.27528965  0.51894373     0.35800
C86         C  0.42306778  0.21315705  0.50988239     0.35800
C87         C  0.03503897  0.34737257  0.46817846    -0.21700
C88         C  0.49270188  0.36197217  0.51313612    -0.21700
C89         C  0.02506490  0.12667400  0.47017726    -0.21700
C90         C  0.48469577  0.13037934  0.46837905    -0.21700
C91         C  0.13207100  0.25673610  0.52672592    -0.22700
C92         C  0.12972373  0.21750764  0.52822328    -0.22700
C93         C  0.38792953  0.26389518  0.53091975    -0.22700
C94         C  0.38633952  0.22467379  0.52487422    -0.22700
C95         C  0.08671329  0.30604082  0.49947851    -0.18100
C96         C  0.43862998  0.31393638  0.51879007    -0.18100
C97         C  0.43336742  0.17484353  0.49794824    -0.18100
C98         C  0.07926633  0.16813180  0.50206414    -0.18100
H99         H  0.05418265  0.36687415  0.45354366     0.14800
H100        H  0.47491433  0.38781421  0.51259136     0.14800
H101        H  0.04306980  0.10337694  0.45759705     0.14800
H102        H  0.46523065  0.10907454  0.45286384     0.14800
H103        H  0.15718307  0.27466372  0.53750505     0.13100
H104        H  0.15268776  0.19948207  0.54065846     0.13100
H105        H  0.36429088  0.28184074  0.54324549     0.13100
H106        H  0.36115347  0.20672499  0.53138580     0.13100
H107        H  0.01326570  0.27669674  0.52208949     0.26400
H108        H  0.00814998  0.20672772  0.52115902     0.26400
C109        C  0.26661434  0.18660674  0.27082410     0.86700
C110        C  0.22988922  0.19104146  0.24213943    -0.53600
C111        C  0.22816595  0.22582539  0.22513307     0.09600
C112        C  0.26330171  0.25290634  0.23876025     0.20600
C113        C  0.30267261  0.19458639  0.24503795    -0.54300
C114        C  0.30059975  0.22898279  0.22780698     0.09700
C115        C  0.26408942  0.22080955  0.30097593    -0.53800
C116        C  0.26327238  0.25549887  0.28520285     0.10300
H117        H  0.20863350  0.16825498  0.23364532     0.14800
H118        H  0.26241587  0.28118258  0.22540696     0.00500
H119        H  0.32611369  0.17371551  0.23855680     0.15100
H120        H  0.26252327  0.21746373  0.33304560     0.14900
N121        N  0.26321278  0.43170026  0.00155126    -0.36400
N122        N  0.19846163  0.48822529  0.00287784    -0.57000
N123        N  0.25087084  0.05756607  0.01469530    -0.36400
N124        N  0.32207970  0.49247743  0.00457613    -0.57000
C125        C  0.23116449  0.41039641  0.01053623     0.27200
C126        C  0.29660614  0.41300418  0.01371811     0.27200
C127        C  0.21718842  0.07749321  0.02383166     0.27200
C128        C  0.28263123  0.07951775  0.02816600     0.27200
C129        C  0.17764767  0.45556658  0.99172364     0.35800
C130        C  0.16694051  0.02745264  0.00078713     0.35800
C131        C  0.34650843  0.46191017  0.99824966     0.35800
C132        C  0.33714455  0.03275103  0.01374021     0.35800
C133        C  0.24421188  0.37805375  0.02901099    -0.21700
C134        C  0.28546203  0.37997912  0.03154927    -0.21700
C135        C  0.22773139  0.11209869  0.04423097    -0.21700
C136        C  0.26899029  0.11363636  0.04641722    -0.21700
C137        C  0.14098161  0.46473672  0.97411327    -0.22700
C138        C  0.12955324  0.01517485  0.98556048    -0.22700
C139        C  0.38379640  0.47370968  0.98632103    -0.22700
C140        C  0.37670705  0.02231469  0.00732054    -0.22700
C141        C  0.19080233  0.41790894  0.99946162    -0.18100
C142        C  0.33664770  0.42401781  0.00663096    -0.18100
C143        C  0.32330267  0.07093265  0.02087059    -0.18100
C144        C  0.17751949  0.06621421  0.01164633    -0.18100
H145        H  0.22590428  0.35536312  0.03955067     0.14800
H146        H  0.30489990  0.35913665  0.04477488     0.14800
H147        H  0.20788897  0.13430661  0.05595333     0.14800
H148        H  0.28673115  0.13739754  0.05974499     0.14800
H149        H  0.11801236  0.44524548  0.96140377     0.13100
H150        H  0.10382120  0.03259966  0.97837107     0.13100
H151        H  0.40970947  0.45612568  0.97941197     0.13100
H152        H  0.40254445  0.04081424  0.00544780     0.13100
H153        H  0.26230043  0.45505594  0.98368804     0.26400
H154        H  0.25223767  0.03284874  0.99566623     0.26400
O155        O  0.06536337  0.24595854  0.88654977    -0.75100
O156        O  0.11576935  0.25066113  0.93451456    -0.54000
C157        C  0.10258963  0.24866569  0.89769269     0.78600
O158        O  0.43789379  0.34539333  0.99927565    -0.59700
O159        O  0.39197325  0.29636925  0.99633983    -0.52700
C160        C  0.40157576  0.33211356  0.99745916     0.70600
O161        O  0.05997165  0.35881177  0.00407348    -0.74300
O162        O  0.11211043  0.31630956  0.00046783    -0.54800
C163        C  0.09762117  0.35070271  0.00354136     0.76700
O164        O  0.43550820  0.23071384  0.88571126    -0.59400
O165        O  0.38993099  0.23421918  0.93534976    -0.52500
C166        C  0.39944841  0.23191318  0.89815921     0.73200
Zr167      Zr  0.99978208  0.24093782  0.91518077     2.54700
O168        O  0.99254231  0.28871647  0.86562752    -0.80000
O169        O  0.50452470  0.18172855  0.86264126    -0.93400
Zr170      Zr  0.99534972  0.32577768  0.99896628     2.64700
O171        O  0.99131489  0.36821884  0.94398208    -0.98300
O172        O  0.99204687  0.37915014  0.04928734    -0.80400
O173        O  0.03705584  0.28716490  0.95624636    -0.83800
O174        O  0.46595687  0.27709042  0.95595938    -2.18500
O175        O  0.44209721  0.13024614  0.98944798    -0.67100
O176        O  0.39385940  0.17632124  0.99837359    -0.51700
C177        C  0.40544533  0.14120675  0.99321748     0.71600
O178        O  0.07296082  0.24791698  0.10952082    -0.60100
O179        O  0.12003851  0.25308160  0.06194751    -0.52000
C180        C  0.10947931  0.24943467  0.09842576     0.73400
O181        O  0.44579217  0.24649083  0.11021356    -0.71400
O182        O  0.39592523  0.24063719  0.06188410    -0.50100
C183        C  0.40862233  0.24421417  0.09883018     0.74800
O184        O  0.07845535  0.14369438  0.99981194    -0.66800
O185        O  0.12208720  0.19384030  0.99605576    -0.54000
C186        C  0.11404450  0.15789024  0.99820590     0.73200
Zr187      Zr  0.00909529  0.16566788  0.99742448     2.77500
O188        O  0.01241371  0.12122423  0.05071199    -0.97500
O189        O  0.01556313  0.11428988  0.94521735    -0.78300
Zr190      Zr  0.00539663  0.25048614  0.08143958     2.70100
O191        O  0.00546262  0.20550107  0.13410697    -0.79600
O192        O  0.00896273  0.30615807  0.12918816    -0.98700
Zr193      Zr  0.08123726  0.25206778  0.99812769     2.21500
Zr194      Zr  0.42973872  0.23720339  0.99792735     2.11100
O195        O  0.47119623  0.19897521  0.03886746    -2.47400
O196        O  0.04641238  0.21085902  0.03970493    -0.79400
O197        O  0.46689277  0.19467728  0.95430815    -0.71600
O198        O  0.03986932  0.29174216  0.04088251    -2.32500
O199        O  0.04400929  0.20586213  0.95559226    -2.28700
O200        O  0.46909747  0.28150706  0.04017595    -0.73300
H201        H  0.44791020  0.29159056  0.93959931     0.78700
H202        H  0.05604501  0.30926712  0.05812946     0.79700
H203        H  0.45512013  0.18376084  0.05554768     0.82000
H204        H  0.06162011  0.19052001  0.93877119     0.79600
H205        H  0.00605312  0.36982459  0.07333508     0.42600
H206        H  0.49500379  0.31345627  0.12467067     0.41600
H207        H  0.01462927  0.18104469  0.12082384     0.41300
H208        H  0.52351471  0.09182157  0.03924386     0.39200
H209        H  0.51950524  0.11605063  0.92020298     0.42300
H210        H  0.02773717  0.17594921  0.86752451     0.37100
H211        H  0.01024246  0.31012753  0.87605514     0.43200
H212        H  0.48273572  0.35784548  0.92835109     0.39600
H213        H  0.01219156  0.09548995  0.03641399     0.44600
H214        H  0.00354455  0.20108778  0.83805279     0.43300
H215        H  0.98620294  0.39386188  0.95720450     0.43400
H216        H  0.00816924  0.29530529  0.15581555     0.43800
C217        C  0.35234097  0.10368317  0.02237226    -0.16200
C218        C  0.37490967  0.11056948  0.99096217    -0.31400
H219        H  0.35423289  0.12314881  0.04909306     0.12800
H220        H  0.37363745  0.09096954  0.96433318     0.13400
C221        C  0.16291782  0.38387845  0.99483502    -0.16200
C222        C  0.12513071  0.38432670  0.00784424    -0.31400
H223        H  0.17483737  0.35697844  0.98211502     0.12800
H224        H  0.11323320  0.41079171  0.02156633     0.13400
C225        C  0.37044399  0.39604107  0.01004027    -0.16200
C226        C  0.36783059  0.35937904  0.99524227    -0.31400
H227        H  0.39885738  0.40643725  0.02351855     0.12800
H228        H  0.33983480  0.34868580  0.98113260     0.13400
C229        C  0.14454027  0.09535880  0.01223363    -0.16200
C230        C  0.14819039  0.13073220  0.99855799    -0.31400
H231        H  0.11562961  0.08665152  0.02288773     0.12800
H232        H  0.17669368  0.13996237  0.98742329     0.13400
C233        C  0.36463302  0.25301690  0.20227671    -0.13100
C234        C  0.32639477  0.23728382  0.19450046     0.09000
C235        C  0.31404381  0.22605645  0.15492232    -0.13100
C236        C  0.34006295  0.22987389  0.12335020    -0.13100
C237        C  0.37903987  0.24454199  0.13107062     0.09000
C238        C  0.39077730  0.25667435  0.17082938    -0.13100
H239        H  0.37459548  0.26144703  0.23276754     0.13000
H240        H  0.28482226  0.21297452  0.14867669     0.13000
H241        H  0.33030228  0.21982707  0.09324794     0.13000
H242        H  0.42058091  0.26816588  0.17782340     0.13000
C243        C  0.20764706  0.25539486  0.16046018    -0.13100
C244        C  0.19767348  0.23434654  0.19341131     0.09000
C245        C  0.15863285  0.21962467  0.19498280    -0.13100
C246        C  0.13046828  0.22503340  0.16419575    -0.13100
C247        C  0.14051310  0.24505720  0.13063120     0.09000
C248        C  0.17944232  0.26029742  0.12903398    -0.13100
H249        H  0.23748286  0.26722901  0.15836362     0.13000
H250        H  0.14974203  0.20382447  0.22012951     0.13000
H251        H  0.10076605  0.21281415  0.16643644     0.13000
H252        H  0.18793465  0.27611370  0.10375009     0.13000
C253        C  0.27722430  0.31994598  0.37961798    -0.13100
C254        C  0.25227284  0.35078778  0.37158722     0.09000
C255        C  0.23361492  0.35217116  0.33324604    -0.13100
C256        C  0.23835475  0.32199103  0.30402049    -0.13100
C257        C  0.26249275  0.29059464  0.31260343     0.09000
C258        C  0.28286227  0.29059617  0.35027017    -0.13100
H259        H  0.29316022  0.31896335  0.40832483     0.13000
H260        H  0.21484087  0.37625858  0.32619932     0.13000
H261        H  0.22224524  0.32260281  0.27540631     0.13000
H262        H  0.30282006  0.26739666  0.35741476     0.13000
C263        C  0.23689300  0.10279109  0.33073770    -0.13100
C264        C  0.26858343  0.10364504  0.35942441     0.09000
C265        C  0.30265158  0.12583759  0.35395369    -0.13100
C266        C  0.30391849  0.14872109  0.32125894    -0.13100
C267        C  0.27040240  0.15105444  0.29448417     0.09000
C268        C  0.23752529  0.12649039  0.29873696    -0.13100
H269        H  0.21081497  0.08480415  0.33406276     0.13000
H270        H  0.32798853  0.12571440  0.37509202     0.13000
H271        H  0.32964006  0.16739344  0.31895815     0.13000
H272        H  0.21102943  0.12701650  0.27939727     0.13000
C273        C  0.37398621  0.34645328  0.50178815    -0.16200
C274        C  0.40888685  0.34604275  0.52305165    -0.31400
H275        H  0.36434006  0.32131417  0.48309821     0.12800
H276        H  0.41733869  0.37151644  0.54183392     0.13400
C277        C  0.10695509  0.13454071  0.50470590    -0.16200
C278        C  0.14497393  0.13405742  0.49212737    -0.31400
H279        H  0.09453942  0.10843199  0.51542268     0.12800
H280        H  0.15746674  0.15943809  0.48000403     0.13400
C281        C  0.11704158  0.37218216  0.50771917    -0.16200
C282        C  0.12050111  0.33431065  0.49766226    -0.31400
H283        H  0.08859894  0.38362464  0.51799590     0.12800
H284        H  0.14954181  0.32324439  0.48861254     0.13400
C285        C  0.40283204  0.10943046  0.50293600    -0.16200
C286        C  0.39970244  0.14601334  0.49255125    -0.31400
H287        H  0.43118102  0.09929943  0.51513049     0.12800
H288        H  0.37080536  0.15583583  0.48129382     0.13400
C289        C  0.30370866  0.25715943  0.84283206    -0.13100
C290        C  0.31167327  0.24268263  0.80374984     0.09000
C291        C  0.34680941  0.22204909  0.79633845    -0.13100
C292        C  0.37463024  0.21704911  0.82762484    -0.13100
C293        C  0.36735255  0.23229009  0.86681620     0.09000
C294        C  0.33120017  0.25163863  0.87434132    -0.13100
H295        H  0.27683037  0.27374821  0.84866815     0.13000
H296        H  0.35323136  0.21092496  0.76618200     0.13000
H297        H  0.40233110  0.20207115  0.82098125     0.13000
H298        H  0.32517495  0.26418387  0.90405559     0.13000
C299        C  0.14446974  0.26429372  0.79635829    -0.13100
C300        C  0.18351234  0.24979289  0.79997905     0.09000
C301        C  0.19592116  0.23402783  0.83605391    -0.13100
C302        C  0.17021369  0.23439668  0.86854721    -0.13100
C303        C  0.13133882  0.24953158  0.86493283     0.09000
C304        C  0.11866141  0.26398945  0.82832858    -0.13100
H305        H  0.13396331  0.27623378  0.76881427     0.13000
H306        H  0.22581316  0.22245825  0.83964045     0.13000
H307        H  0.18047132  0.22247304  0.89618778     0.13000
H308        H  0.08876273  0.27563676  0.82453559     0.13000
C309        C  0.28536871  0.34933244  0.69453119    -0.13100
C310        C  0.25103428  0.32642538  0.69803800     0.09000
C311        C  0.21823187  0.33026148  0.67081919    -0.13100
C312        C  0.22104118  0.35360082  0.63886483    -0.13100
C313        C  0.25593476  0.37493328  0.63464517     0.09000
C314        C  0.28749896  0.37376648  0.66325887    -0.13100
H315        H  0.31144915  0.34733918  0.71422731     0.13000
H316        H  0.19152718  0.31274603  0.67253190     0.13000
H317        H  0.19600901  0.35507116  0.61750314     0.13000
H318        H  0.31435117  0.39085528  0.66056836     0.13000
C319        C  0.22551786  0.18623740  0.64831193    -0.13100
C320        C  0.24680157  0.18679907  0.68550042     0.09000
C321        C  0.27282856  0.15658658  0.69329380    -0.13100
C322        C  0.27872259  0.12714627  0.66355265    -0.13100
C323        C  0.25925726  0.12810621  0.62553674     0.09000
C324        C  0.23227713  0.15763710  0.61838105    -0.13100
H325        H  0.20477801  0.20903088  0.64176881     0.13000
H326        H  0.28992930  0.15672153  0.72142643     0.13000
H327        H  0.29919309  0.10408408  0.66984048     0.13000
H328        H  0.21594401  0.15826481  0.58985524     0.13000
C329        C  0.24874640  0.79301013  0.71962979     0.86700
C330        C  0.21256041  0.79008445  0.74661907    -0.53600
C331        C  0.21163498  0.75708596  0.76673196     0.09600
C332        C  0.24633468  0.72939980  0.75657389     0.20600
C333        C  0.28537996  0.78731521  0.74798289    -0.54300
C334        C  0.28378576  0.75403003  0.76720068     0.09700
C335        C  0.24730999  0.75683025  0.69182724    -0.53800
C336        C  0.24505854  0.72370152  0.71040129     0.10300
H337        H  0.19144335  0.81343374  0.75153275     0.14800
H338        H  0.24550365  0.70221959  0.77202915     0.00500
H339        H  0.30920388  0.80806228  0.75480063     0.15100
H340        H  0.24857268  0.75744191  0.65936055     0.14900
O341        O  0.15423766  0.56489022  0.49839387    -0.75100
O342        O  0.20866681  0.60324233  0.49007556    -0.54000
C343        C  0.17068312  0.59761228  0.49272760     0.78600
O344        O  0.26119867  0.93750596  0.61013320    -0.59700
O345        O  0.24949138  0.88866228  0.56234985    -0.52700
C346        C  0.25469785  0.90227185  0.59892198     0.70600
O347        O  0.26424700  0.56196717  0.61105403    -0.74300
O348        O  0.26154236  0.60241770  0.55998135    -0.54800
C349        C  0.26133321  0.59530948  0.59743912     0.76700
O350        O  0.14145858  0.93586394  0.50121955    -0.59400
O351        O  0.18673915  0.88674955  0.49696776    -0.52500
C352        C  0.15076677  0.89988890  0.49965199     0.73200
Zr353      Zr  0.17477579  0.99858773  0.49703926     2.54700
O354        O  0.12447793  0.00926457  0.54793540    -0.80000
O355        O  0.12404856  0.99766561  0.44285525    -0.93400
Zr356      Zr  0.26271359  0.99785060  0.57963146     2.61700
O357        O  0.21709418  0.50112058  0.63697173    -0.98300
O358        O  0.31777328  0.00111011  0.62939926    -0.80400
O359        O  0.22375971  0.53372413  0.54183992    -0.83800
O360        O  0.21453097  0.96137424  0.54003012    -2.18500
O361        O  0.24774977  0.91843253  0.38474035    -0.67100
O362        O  0.25104558  0.87798645  0.43570231    -0.51700
C363        C  0.24952373  0.88497908  0.39828981     0.71600
O364        O  0.37823325  0.54491951  0.50142722    -0.60100
O365        O  0.33258745  0.59370014  0.50019433    -0.52000
C366        C  0.36876492  0.58079940  0.50176357     0.73400
O367        O  0.36510780  0.91533839  0.49739160    -0.71400
O368        O  0.31023805  0.87591754  0.49767006    -0.50100
C369        C  0.34836401  0.88184513  0.49735960     0.74800
O370        O  0.26209972  0.54059442  0.38534741    -0.66800
O371        O  0.27316860  0.59016024  0.43242367    -0.54000
C372        C  0.26898064  0.57587486  0.39594878     0.73200
Zr373      Zr  0.25538139  0.98343177  0.41326328     2.77500
O374        O  0.30480991  0.97442952  0.36125821    -0.97500
O375        O  0.19934993  0.98574080  0.36493422    -0.78300
Zr376      Zr  0.34388454  0.98319332  0.49660122     2.70100
O377        O  0.39322224  0.97755275  0.44423345    -0.79600
O378        O  0.39498775  0.98225240  0.55025284    -0.98700
Zr379      Zr  0.26717723  0.56277071  0.49733838     2.21500
Zr380      Zr  0.25206085  0.91759530  0.49818512     2.11100
O381        O  0.29682577  0.94685771  0.45495172    -2.47400
O382        O  0.30413138  0.51824647  0.45592198    -0.79400
O383        O  0.21052172  0.95365808  0.45527259    -0.71600
O384        O  0.30867699  0.52693270  0.54079481    -2.32500
O385        O  0.21871909  0.52637551  0.45689226    -2.28700
O386        O  0.30020328  0.95313433  0.53985558    -0.73300
H387        H  0.19740374  0.94783539  0.55720444     0.78700
H388        H  0.32676513  0.54344571  0.55720344     0.79700
H389        H  0.31104848  0.92788872  0.43863367     0.82000
H390        H  0.20343178  0.54237987  0.43953972     0.79600
H391        H  0.34023464  0.48113109  0.62255950     0.42600
H392        H  0.38904252  0.95895854  0.56440948     0.41600
H393        H  0.38125247  0.45533781  0.42680655     0.41300
H394        H  0.32055947  0.95175761  0.36852473     0.39200
H395        H  0.17832814  0.96946462  0.37559188     0.42300
H396        H  0.13161157  0.51530799  0.43062657     0.37100
H397        H  0.14627305  0.51914095  0.57895129     0.43200
H398        H  0.19288514  0.98223863  0.62377670     0.39600
H399        H  0.28902067  0.96548955  0.33680554     0.44600
H400        H  0.09833091  0.00160803  0.45663241     0.43300
H401        H  0.22505446  0.99919246  0.65529407     0.43400
H402        H  0.42023244  0.97622002  0.53629408     0.43800
N403        N  0.01350067  0.79845086  0.49584557    -0.36400
N404        N  0.07256772  0.73704806  0.49180720    -0.57000
N405        N  0.00735246  0.68153802  0.49471585    -0.36400
N406        N  0.44707466  0.74319587  0.50069949    -0.57000
C407        C  0.04624254  0.81668722  0.48308828     0.27200
C408        C  0.48033072  0.81996173  0.49441801     0.27200
C409        C  0.03912194  0.65910333  0.48493532     0.27200
C410        C  0.47196774  0.66249405  0.48826048     0.27200
C411        C  0.09679645  0.76796330  0.49980895     0.35800
C412        C  0.09365999  0.70595587  0.50247541     0.35800
C413        C  0.42707150  0.77556429  0.51244324     0.35800
C414        C  0.42352323  0.71318888  0.50876420     0.35800
C415        C  0.03408357  0.84913502  0.46415748    -0.21700
C416        C  0.49272110  0.85114040  0.47427520    -0.21700
C417        C  0.02557238  0.62497122  0.46565369    -0.21700
C418        C  0.48197036  0.62827911  0.46749984    -0.21700
C419        C  0.13346739  0.75649997  0.51562233    -0.22700
C420        C  0.13126105  0.71736660  0.51793745    -0.22700
C421        C  0.39099631  0.76599679  0.52897805    -0.22700
C422        C  0.38848138  0.72652886  0.52609679    -0.22700
C423        C  0.08667290  0.80601858  0.49115161    -0.18100
C424        C  0.44028969  0.81311334  0.50516921    -0.18100
C425        C  0.43244526  0.67420849  0.49819784    -0.18100
C426        C  0.07972023  0.66752260  0.49578849    -0.18100
H427        H  0.05278644  0.86945554  0.45014630     0.14800
H428        H  0.47403972  0.87326323  0.46227722     0.14800
H429        H  0.04361284  0.60116738  0.45427555     0.14800
H430        H  0.46180664  0.60696452  0.45304596     0.14800
H431        H  0.15896539  0.77447218  0.52511184     0.13100
H432        H  0.15478426  0.69963178  0.52980714     0.13100
H433        H  0.36867183  0.78523254  0.54171868     0.13100
H434        H  0.36380216  0.70964485  0.53593684     0.13100
H435        H  0.01367177  0.77549435  0.51428670     0.26400
H436        H  0.00860425  0.70681129  0.51308511     0.26400
C437        C  0.26806832  0.68555790  0.27549051     0.86700
C438        C  0.23081633  0.68880596  0.24726740    -0.53600
C439        C  0.22897898  0.72258894  0.22859884     0.09600
C440        C  0.26400729  0.75022148  0.24038106     0.20600
C441        C  0.30362517  0.69241058  0.24858193    -0.54300
C442        C  0.30106766  0.72611926  0.23001723     0.09700
C443        C  0.26595829  0.72106761  0.30419630    -0.53800
C444        C  0.26479554  0.75484899  0.28652929     0.10300
H445        H  0.20909733  0.66612684  0.24018413     0.14800
H446        H  0.26263888  0.77775710  0.22554077     0.00500
H447        H  0.32700090  0.67137139  0.24251495     0.15100
H448        H  0.26513618  0.71942381  0.33657008     0.14900
N449        N  0.25430146  0.93976882  0.00588941    -0.36400
N450        N  0.19083645  0.99674876  0.00628003    -0.57000
N451        N  0.25802988  0.55002756  0.00005551    -0.36400
N452        N  0.31432853  0.00092081  0.01654989    -0.57000
C453        C  0.22159852  0.91715267  0.00956745     0.27200
C454        C  0.28715113  0.91971852  0.01715288     0.27200
C455        C  0.22446673  0.57022406  0.01001426     0.27200
C456        C  0.29060614  0.57218294  0.01123781     0.27200
C457        C  0.16888826  0.96510295  0.99429717     0.35800
C458        C  0.17474900  0.51798331  0.99310947     0.35800
C459        C  0.33906302  0.97042300  0.01128146     0.35800
C460        C  0.34398369  0.52369138  0.99727935     0.35800
C461        C  0.23415809  0.88214650  0.02289280    -0.21700
C462        C  0.27504186  0.88428395  0.02887326    -0.21700
C463        C  0.23608508  0.60566081  0.02791077    -0.21700
C464        C  0.27758957  0.60694163  0.02848888    -0.21700
C465        C  0.13073970  0.97583557  0.98158033    -0.22700
C466        C  0.13892258  0.50412745  0.97551865    -0.22700
C467        C  0.37782811  0.98298861  0.00533695    -0.22700
C468        C  0.38221543  0.51283554  0.98572590    -0.22700
C469        C  0.18140494  0.92670429  0.99846811    -0.18100
C470        C  0.32783740  0.93160229  0.01459720    -0.18100
C471        C  0.33161785  0.56194914  0.00534595    -0.18100
C472        C  0.18393781  0.55743735  0.00210650    -0.18100
H473        H  0.21661559  0.85697293  0.02761411     0.14800
H474        H  0.29361518  0.86170976  0.04004259     0.14800
H475        H  0.21689910  0.62818327  0.04008422     0.14800
H476        H  0.29602968  0.63063010  0.04086709     0.14800
H477        H  0.10590793  0.95734443  0.97131229     0.13100
H478        H  0.11404754  0.52069198  0.96433552     0.13100
H479        H  0.40446895  0.96577621  0.00073608     0.13100
H480        H  0.40675566  0.53124044  0.97840429     0.13100
H481        H  0.25458747  0.96549271  0.99190070     0.26400
H482        H  0.25861869  0.52376664  0.98346440     0.26400
O483        O  0.06908467  0.74628214  0.88872756    -0.75100
O484        O  0.11963381  0.74621485  0.93635582    -0.54000
C485        C  0.10628814  0.74768804  0.89977191     0.78600
O486        O  0.42975686  0.85421556  0.00330752    -0.59700
O487        O  0.38482430  0.80456170  0.99748855    -0.52700
C488        C  0.39374294  0.84049964  0.00025306     0.70600
O489        O  0.07299370  0.85260064  0.00484445    -0.74300
O490        O  0.12045855  0.80542740  0.00744013    -0.54800
C491        C  0.10949023  0.84087617  0.00827566     0.76700
O492        O  0.43307047  0.73790687  0.88630217    -0.59400
O493        O  0.38638810  0.74412949  0.93478278    -0.52500
C494        C  0.39675303  0.74015457  0.89790748     0.73200
Zr495      Zr  0.00410071  0.73813658  0.91646939     2.54700
O496        O  0.99776741  0.78241551  0.86327126    -0.80000
O497        O  0.50074829  0.69232660  0.86385319    -0.93400
Zr498      Zr  0.00608973  0.82360467  0.00052112     2.64700
O499        O  0.00626090  0.86651777  0.94586564    -0.98300
O500        O  0.00571042  0.87499649  0.05338981    -0.80400
O501        O  0.04430035  0.78177732  0.95788541    -0.83800
O502        O  0.46032589  0.78616298  0.95703852    -2.18500
O503        O  0.43503202  0.63968920  0.99653284    -0.67100
O504        O  0.38764505  0.68689864  0.99386527    -0.51700
C505        C  0.39813449  0.65169372  0.99454804     0.71600
O506        O  0.07580857  0.74252415  0.11079226    -0.60100
O507        O  0.12342901  0.74194281  0.06311977    -0.52000
C508        C  0.11238125  0.74088580  0.09971878     0.73400
O509        O  0.43817590  0.75279471  0.11033252    -0.71400
O510        O  0.38918187  0.74556671  0.06107053    -0.50100
C511        C  0.40138708  0.74909584  0.09810508     0.74800
O512        O  0.07724380  0.63472515  0.99895640    -0.66800
O513        O  0.12238751  0.68379619  0.99554038    -0.54000
C514        C  0.11349800  0.64793119  0.99653174     0.73200
Zr515      Zr  0.00781604  0.66137911  0.99876576     2.77500
O516        O  0.01019238  0.61650498  0.05157259    -0.97500
O517        O  0.00619318  0.61131706  0.94446332    -0.78300
Zr518      Zr  0.00847037  0.74764891  0.08268603     2.70100
O519        O  0.00778953  0.70385820  0.13636473    -0.79600
O520        O  0.01274401  0.80352575  0.13024174    -0.98700
Zr521      Zr  0.08498392  0.74384244  0.99982134     2.21500
Zr522      Zr  0.42434148  0.74621702  0.99832605     2.11100
O523        O  0.46519544  0.70808622  0.04026154    -2.47400
O524        O  0.04708288  0.70498809  0.04132746    -0.79400
O525        O  0.46290725  0.70400010  0.95577540    -0.71600
O526        O  0.04674777  0.78634195  0.04267883    -2.32500
O527        O  0.04537822  0.70001837  0.95693179    -2.28700
O528        O  0.46154536  0.79010121  0.04256219    -0.73300
H529        H  0.44231957  0.80047049  0.94045639     0.78700
H530        H  0.06394144  0.80268822  0.06023635     0.79700
H531        H  0.44890941  0.69271521  0.05656390     0.82000
H532        H  0.06228558  0.68414045  0.93986733     0.79600
H533        H  0.98456170  0.86752802  0.07160748     0.42600
H534        H  0.48142970  0.81871395  0.13028900     0.41600
H535        H  0.01986865  0.67999683  0.12456634     0.41300
H536        H  0.48044595  0.62061033  0.06014380     0.39200
H537        H  0.52855947  0.62414593  0.92686057     0.42300
H538        H  0.99892450  0.69176275  0.84311867     0.37100
H539        H  0.98579197  0.80580444  0.87623003     0.43200
H540        H  0.46951646  0.86836428  0.93375659     0.39600
H541        H  0.00577190  0.59106002  0.03726339     0.44600
H542        H  0.98984342  0.66438390  0.87708801     0.43300
H543        H  0.00793297  0.89255808  0.95941106     0.43400
H544        H  0.01242552  0.79277130  0.15694380     0.43800
C545        C  0.36467864  0.59122018  0.01069751    -0.16200
C546        C  0.36428411  0.62391057  0.99185412    -0.31400
H547        H  0.39167290  0.58393696  0.02767245     0.12800
H548        H  0.33738622  0.63145324  0.97490788     0.13400
C549        C  0.15074046  0.89552678  0.98974982    -0.16200
C550        C  0.14080397  0.87042892  0.01667999    -0.31400
H551        H  0.13453363  0.89446438  0.96094421     0.12800
H552        H  0.15507074  0.87213281  0.04639269     0.13400
C553        C  0.36113204  0.90287620  0.01753949    -0.16200
C554        C  0.35989940  0.86771607  0.99842280    -0.31400
H555        H  0.38826477  0.91158336  0.03466932     0.12800
H556        H  0.33329660  0.85838855  0.98081222     0.13400
C557        C  0.14856712  0.58472621  0.00565342    -0.16200
C558        C  0.14837352  0.62087384  0.99340633    -0.31400
H559        H  0.12100180  0.57383934  0.01737594     0.12800
H560        H  0.17539938  0.63175342  0.98068780     0.13400
C561        C  0.35486743  0.76241765  0.19914434    -0.13100
C562        C  0.32529081  0.73390553  0.19564451     0.09000
C563        C  0.31754431  0.71352149  0.15864077    -0.13100
C564        C  0.34055327  0.72039931  0.12562942    -0.13100
C565        C  0.37194702  0.74727937  0.12968276     0.09000
C566        C  0.37845427  0.76877593  0.16641728    -0.13100
H567        H  0.36040649  0.77886143  0.22740959     0.13000
H568        H  0.29398548  0.69200330  0.15554781     0.13000
H569        H  0.33524620  0.70336257  0.09768608     0.13000
H570        H  0.40248233  0.78978565  0.17002488     0.13000
C571        C  0.21065268  0.74537491  0.16067945    -0.13100
C572        C  0.19910440  0.72914923  0.19607025     0.09000
C573        C  0.15928683  0.71715636  0.19936875    -0.13100
C574        C  0.13149905  0.72113633  0.16794061    -0.13100
C575        C  0.14294663  0.73678698  0.13218819     0.09000
C576        C  0.18286354  0.74880428  0.12874986    -0.13100
H577        H  0.24133549  0.75456332  0.15727657     0.13000
H578        H  0.14959252  0.70474239  0.22636529     0.13000
H579        H  0.10097561  0.71145953  0.17152873     0.13000
H580        H  0.19242607  0.76114825  0.10167246     0.13000
C581        C  0.28069688  0.82359629  0.37663161    -0.13100
C582        C  0.25325367  0.85254234  0.36860353     0.09000
C583        C  0.23293064  0.85181182  0.33098123    -0.13100
C584        C  0.23825682  0.82099393  0.30267714    -0.13100
C585        C  0.26442677  0.79116881  0.31166127     0.09000
C586        C  0.28676830  0.79361821  0.34819339    -0.13100
H587        H  0.29789760  0.82443516  0.40476889     0.13000
H588        H  0.21227803  0.87451516  0.32398082     0.13000
H589        H  0.22075477  0.81962676  0.27474461     0.13000
H590        H  0.30812121  0.77153158  0.35535704     0.13000
C591        C  0.24196320  0.59780625  0.33176337    -0.13100
C592        C  0.27114160  0.60117512  0.36299150     0.09000
C593        C  0.30291719  0.62701806  0.36106659    -0.13100
C594        C  0.30417553  0.65083113  0.32921947    -0.13100
C595        C  0.27241940  0.65075550  0.30015614     0.09000
C596        C  0.24232527  0.62253541  0.30071585    -0.13100
H597        H  0.21780249  0.57703976  0.33235079     0.13000
H598        H  0.32642905  0.62898558  0.38427541     0.13000
H599        H  0.32812626  0.67186263  0.32921499     0.13000
H600        H  0.21786477  0.62027033  0.27880614     0.13000
C601        C  0.37407690  0.84703096  0.49579616    -0.16200
C602        C  0.41291924  0.84736669  0.50837467    -0.31400
H603        H  0.36034550  0.82038177  0.48368060     0.12800
H604        H  0.42625938  0.87463485  0.51931137     0.13400
C605        C  0.10688796  0.63384940  0.50102620    -0.16200
C606        C  0.14464907  0.63154203  0.48788886    -0.31400
H607        H  0.09427358  0.60917089  0.51446332     0.12800
H608        H  0.15722837  0.65540647  0.47312134     0.13400
C609        C  0.11731518  0.87202696  0.50175762    -0.16200
C610        C  0.12026437  0.83461228  0.48915357    -0.31400
H611        H  0.08938685  0.88285443  0.51392221     0.12800
H612        H  0.14879627  0.82410563  0.47803597     0.13400
C613        C  0.40233311  0.60886978  0.50527442    -0.16200
C614        C  0.39840431  0.64569081  0.49565734    -0.31400
H615        H  0.43119732  0.59866493  0.51608689     0.12800
H616        H  0.36893965  0.65567359  0.48619726     0.13400
C617        C  0.30259832  0.76397392  0.83942173    -0.13100
C618        C  0.31080213  0.74707728  0.80134274     0.09000
C619        C  0.34564854  0.72550396  0.79569815    -0.13100
C620        C  0.37295574  0.72195164  0.82774809    -0.13100
C621        C  0.36536914  0.73956370  0.86589510     0.09000
C622        C  0.32953474  0.75992768  0.87168558    -0.13100
H623        H  0.27583173  0.78110687  0.84386324     0.13000
H624        H  0.35221216  0.71244051  0.76632767     0.13000
H625        H  0.40044066  0.70611940  0.82251715     0.13000
H626        H  0.32329602  0.77422448  0.90056977     0.13000
C627        C  0.14530523  0.76723574  0.79831075    -0.13100
C628        C  0.18427329  0.75238433  0.80022177     0.09000
C629        C  0.19795725  0.73605181  0.83560475    -0.13100
C630        C  0.17342662  0.73570610  0.86891256    -0.13100
C631        C  0.13451414  0.75085119  0.86690447     0.09000
C632        C  0.12076230  0.76649136  0.83119335    -0.13100
H633        H  0.13376898  0.77955515  0.77135187     0.13000
H634        H  0.22789404  0.72433444  0.83799286     0.13000
H635        H  0.18450568  0.72294103  0.89579430     0.13000
H636        H  0.09078413  0.77824235  0.82859097     0.13000
C637        C  0.27980517  0.85339583  0.69330211    -0.13100
C638        C  0.24767150  0.82731398  0.69414987     0.09000
C639        C  0.21610891  0.82895501  0.66511472    -0.13100
C640        C  0.21909032  0.85231989  0.63317542    -0.13100
C641        C  0.25240354  0.87630834  0.63117359     0.09000
C642        C  0.28181752  0.87801231  0.66219747    -0.13100
H643        H  0.30424648  0.85420113  0.71526572     0.13000
H644        H  0.19062647  0.80964834  0.66538678     0.13000
H645        H  0.19539490  0.85178942  0.61016118     0.13000
H646        H  0.30708554  0.89753093  0.66156782     0.13000
C647        C  0.22076289  0.68475719  0.64967108    -0.13100
C648        C  0.24373579  0.68710640  0.68588865     0.09000
C649        C  0.27083780  0.65785017  0.69389654    -0.13100
C650        C  0.27662241  0.62780326  0.66493831    -0.13100
C651        C  0.25581160  0.62714966  0.62755535     0.09000
C652        C  0.22720515  0.65535826  0.62048247    -0.13100
H653        H  0.19920355  0.70688042  0.64314734     0.13000
H654        H  0.28910209  0.65940090  0.72136537     0.13000
H655        H  0.29831264  0.60573127  0.67115235     0.13000
H656        H  0.20982377  0.65459348  0.59246105     0.13000
C657        C  0.74864940  0.29570712  0.72203828     0.86700
C658        C  0.71105290  0.28851552  0.74587803    -0.53600
C659        C  0.71170650  0.25451191  0.76410513     0.09600
C660        C  0.74918948  0.23006999  0.75525608     0.20600
C661        C  0.78369694  0.29157471  0.75264381    -0.54300
C662        C  0.78374757  0.25708768  0.76972173     0.09700
C663        C  0.75225583  0.26090236  0.69260614    -0.53800
C664        C  0.75142320  0.22655189  0.70911811     0.10300
H665        H  0.68780819  0.30995025  0.75067561     0.14800
H666        H  0.74938838  0.20220303  0.76948630     0.00500
H667        H  0.80536825  0.31379312  0.76195526     0.15100
H668        H  0.75546663  0.26355007  0.66059865     0.14900
O669        O  0.65412304  0.06562965  0.50104002    -0.75100
O670        O  0.70851309  0.10387553  0.49200667    -0.54000
C671        C  0.67058760  0.09849822  0.49579255     0.78600
O672        O  0.76052196  0.43921632  0.61207205    -0.59700
O673        O  0.75079149  0.38930853  0.56514036    -0.52700
C674        C  0.75478255  0.40379971  0.60153655     0.70600
O675        O  0.76783668  0.06232092  0.61089695    -0.74300
O676        O  0.76530229  0.10231310  0.55947487    -0.54800
C677        C  0.76592379  0.09564388  0.59704007     0.76700
O678        O  0.64341275  0.43208502  0.49143957    -0.59400
O679        O  0.68969489  0.38446321  0.49844495    -0.52500
C680        C  0.65355440  0.39650622  0.49388952     0.73200
Zr681      Zr  0.67546906  0.49641881  0.49624734     2.54700
O682        O  0.62905063  0.50205638  0.55126781    -0.80000
O683        O  0.62293901  0.49725309  0.44397958    -0.93400
Zr684      Zr  0.76239661  0.49835510  0.58001603     2.61700
O685        O  0.71435146  0.00556324  0.63432220    -0.98300
O686        O  0.81816427  0.50193929  0.62898632    -0.80400
O687        O  0.72311935  0.03432318  0.54127924    -0.83800
O688        O  0.71504967  0.46047854  0.54047503    -2.18500
O689        O  0.74933703  0.41660674  0.38630806    -0.67100
O690        O  0.75261924  0.37647356  0.43755377    -0.51700
C691        C  0.75077876  0.38322424  0.40001579     0.71600
O692        O  0.87800250  0.04496418  0.50058629    -0.60100
O693        O  0.83258364  0.09391387  0.49903700    -0.52000
C694        C  0.86874848  0.08091326  0.50070313     0.73400
O695        O  0.86642727  0.41511223  0.49720194    -0.71400
O696        O  0.81194402  0.37540069  0.49909230    -0.50100
C697        C  0.84987920  0.38154533  0.49746743     0.74800
O698        O  0.75984779  0.04049604  0.38479857    -0.66800
O699        O  0.77284327  0.08987353  0.43158276    -0.54000
C700        C  0.76747986  0.07563816  0.39521175     0.73200
Zr701      Zr  0.75803393  0.48159224  0.41410198     2.77500
O702        O  0.81352978  0.47259419  0.36860780    -0.97500
O703        O  0.70586044  0.48090571  0.36139917    -0.78300
Zr704      Zr  0.84487665  0.48300329  0.49823511     2.70100
O705        O  0.89400075  0.47855408  0.44561222    -0.79600
O706        O  0.89620204  0.48090337  0.55157734    -0.98700
Zr707      Zr  0.76705217  0.06282708  0.49670254     2.21500
Zr708      Zr  0.75383687  0.41666288  0.50001933     2.11100
O709        O  0.79869824  0.44557327  0.45680507    -2.47400
O710        O  0.80340308  0.01808368  0.45514224    -0.79400
O711        O  0.71298262  0.45193430  0.45593502    -0.71600
O712        O  0.80832369  0.02685582  0.54014782    -2.32500
O713        O  0.71783639  0.02664394  0.45684058    -2.28700
O714        O  0.80100821  0.45334951  0.54166126    -0.73300
H715        H  0.69765206  0.44696896  0.55742914     0.78700
H716        H  0.82659261  0.04325173  0.55652426     0.79700
H717        H  0.81303574  0.42649108  0.44079763     0.82000
H718        H  0.70245331  0.04291005  0.43986116     0.79600
H719        H  0.83655138  0.97581838  0.62317005     0.42600
H720        H  0.89121623  0.45658392  0.56429323     0.41600
H721        H  0.87634389  0.96879137  0.42095333     0.41300
H722        H  0.82414646  0.44672780  0.37310280     0.39200
H723        H  0.68213982  0.46969583  0.37352896     0.42300
H724        H  0.63241331  0.01302782  0.42897874     0.37100
H725        H  0.64351500  0.01819766  0.57845017     0.43200
H726        H  0.69391315  0.48218562  0.62595794     0.39600
H727        H  0.80049134  0.46987142  0.34152222     0.44600
H728        H  0.59857394  0.50566229  0.45831302     0.43300
H729        H  0.72598464  0.50112066  0.65642903     0.43400
H730        H  0.92159416  0.47653690  0.53732836     0.43800
N731        N  0.51183701  0.30093066  0.51608780    -0.36400
N732        N  0.57218586  0.23987877  0.50762614    -0.57000
N733        N  0.50709459  0.18316444  0.50373024    -0.36400
N734        N  0.94796099  0.24297876  0.49900267    -0.57000
C735        C  0.54530011  0.32284471  0.51373405     0.27200
C736        C  0.98130891  0.31909121  0.49074194     0.27200
C737        C  0.53918061  0.16160391  0.49261332     0.27200
C738        C  0.97311206  0.16269522  0.48877171     0.27200
C739        C  0.59658480  0.27040192  0.51757692     0.35800
C740        C  0.59397829  0.20774057  0.51330292     0.35800
C741        C  0.92821167  0.27552396  0.51045476     0.35800
C742        C  0.92446432  0.21323557  0.50788504     0.35800
C743        C  0.53374499  0.36105028  0.51319209    -0.21700
C744        C  0.99382560  0.34952049  0.46951251    -0.21700
C745        C  0.52595949  0.12861906  0.47082717    -0.21700
C746        C  0.98378154  0.12863603  0.46818045    -0.21700
C747        C  0.63428258  0.25739342  0.52912501    -0.22700
C748        C  0.63235761  0.21800287  0.52730906    -0.22700
C749        C  0.89239989  0.26632935  0.52778223    -0.22700
C750        C  0.88969314  0.22687070  0.52545550    -0.22700
C751        C  0.58592282  0.30973559  0.51497909    -0.18100
C752        C  0.94144803  0.31276022  0.50207400    -0.18100
C753        C  0.93333209  0.17421719  0.49782486    -0.18100
C754        C  0.57989750  0.16956607  0.50385986    -0.18100
H755        H  0.55226951  0.38648782  0.51448154     0.14800
H756        H  0.97517547  0.37108555  0.45643865     0.14800
H757        H  0.54422113  0.10570304  0.45784520     0.14800
H758        H  0.96403634  0.10717907  0.45334764     0.14800
H759        H  0.66050091  0.27424989  0.53873987     0.13100
H760        H  0.65668702  0.19941687  0.53568402     0.13100
H761        H  0.87036057  0.28576386  0.54070302     0.13100
H762        H  0.86515731  0.21018272  0.53590064     0.13100
H763        H  0.51117329  0.27201231  0.52099605     0.26400
H764        H  0.50794655  0.20706289  0.52404235     0.26400
C765        C  0.76602216  0.18442611  0.27424183     0.86700
C766        C  0.73012923  0.18745073  0.24445003    -0.53600
C767        C  0.72873644  0.22159851  0.22630451     0.09600
C768        C  0.76297018  0.24958527  0.24003647     0.20600
C769        C  0.80274192  0.19213481  0.24923134    -0.54300
C770        C  0.80075023  0.22599342  0.23100211     0.09700
C771        C  0.76189871  0.21937753  0.30320455    -0.53800
C772        C  0.76165282  0.25350784  0.28624875     0.10300
H773        H  0.70909014  0.16440937  0.23620115     0.14800
H774        H  0.76205469  0.27732085  0.22556255     0.00500
H775        H  0.82631436  0.17120186  0.24358362     0.15100
H776        H  0.75950378  0.21702802  0.33535961     0.14900
N777        N  0.74996603  0.43655562  0.00136061    -0.36400
N778        N  0.68959267  0.49808396  0.00488732    -0.57000
N779        N  0.75423919  0.05033617  0.01006007    -0.36400
N780        N  0.81365358  0.49459439  0.00722632    -0.57000
C781        C  0.71632272  0.41712396  0.98789409     0.27200
C782        C  0.78209965  0.41521769  0.98943119     0.27200
C783        C  0.71898723  0.06761795  0.01921372     0.27200
C784        C  0.78425480  0.07402504  0.02470381     0.27200
C785        C  0.66473611  0.46717861  0.00417220     0.35800
C786        C  0.67333263  0.01500546  0.99369884     0.35800
C787        C  0.83653920  0.46259747  0.00849596     0.35800
C788        C  0.84213252  0.03117014  0.01116838     0.35800
C789        C  0.72735002  0.38346422  0.96676558    -0.21700
C790        C  0.76864535  0.38222917  0.96782710    -0.21700
C791        C  0.72677057  0.10210568  0.04107007    -0.21700
C792        C  0.76787625  0.10641433  0.04402460    -0.21700
C793        C  0.62566126  0.47924811  0.01032031    -0.22700
C794        C  0.63908684  0.00026014  0.97361194    -0.22700
C795        C  0.87625670  0.47273620  0.01729762    -0.22700
C796        C  0.88246354  0.02283230  0.00601563    -0.22700
C797        C  0.67590147  0.42844176  0.99479014    -0.18100
C798        C  0.82325867  0.42460316  0.99765535    -0.18100
C799        C  0.82563699  0.06845934  0.01768189    -0.18100
C800        C  0.68041010  0.05420745  0.00525181    -0.18100
H801        H  0.70773486  0.36216698  0.95143127     0.14800
H802        H  0.78663271  0.35985439  0.95347565     0.14800
H803        H  0.70516264  0.12247095  0.05319084     0.14800
H804        H  0.78366446  0.13080126  0.05866029     0.14800
H805        H  0.59885173  0.46187199  0.01140674     0.13100
H806        H  0.61380664  0.01610352  0.96214790     0.13100
H807        H  0.90184932  0.45401948  0.02044142     0.13100
H808        H  0.90738747  0.04255921  0.00505091     0.13100
H809        H  0.75085621  0.46121335  0.02064210     0.26400
H810        H  0.75754835  0.02622813  0.99040631     0.26400
O811        O  0.56726038  0.23820778  0.88368224    -0.75100
O812        O  0.61825041  0.24094123  0.93092632    -0.54000
C813        C  0.60450098  0.24032553  0.89430102     0.78600
O814        O  0.92512448  0.34778600  0.99979861    -0.59700
O815        O  0.88248387  0.29679218  0.00263902    -0.52700
C816        C  0.88968189  0.33297223  0.00169186     0.70600
O817        O  0.57514687  0.34741453  0.99788540    -0.74300
O818        O  0.62229721  0.30004374  0.00036037    -0.54800
C819        C  0.61187406  0.33543585  0.99983647     0.76700
O820        O  0.93207298  0.23455356  0.88703277    -0.59400
O821        O  0.88575488  0.23788365  0.93617610    -0.52500
C822        C  0.89583985  0.23576216  0.89917831     0.73200
Zr823      Zr  0.50315707  0.23461340  0.91377876     2.54700
O824        O  0.49717690  0.28196598  0.86356287    -0.80000
O825        O  0.00133622  0.18835982  0.86354369    -0.93400
Zr826      Zr  0.50672670  0.31979023  0.99817249     2.64700
O827        O  0.50617263  0.36539872  0.94608419    -0.98300
O828        O  0.50838865  0.37069786  0.05160276    -0.80400
O829        O  0.54405009  0.27807516  0.95458645    -0.83800
O830        O  0.95856772  0.28067008  0.95661800    -2.18500
O831        O  0.94371444  0.13346054  0.99038435    -0.67100
O832        O  0.89260242  0.17669248  0.99805805    -0.51700
C833        C  0.90632796  0.14228796  0.99320670     0.71600
O834        O  0.57797639  0.23900943  0.10677064    -0.60100
O835        O  0.62508973  0.23974233  0.05878158    -0.52000
C836        C  0.61438812  0.23836305  0.09549506     0.73400
O837        O  0.93992734  0.24974257  0.11057706    -0.71400
O838        O  0.89043230  0.23953382  0.06229963    -0.50100
C839        C  0.90305602  0.24467735  0.09910280     0.74800
O840        O  0.57822262  0.13208239  0.99607767    -0.66800
O841        O  0.62367821  0.18056513  0.99168022    -0.54000
C842        C  0.61437285  0.14496100  0.99362321     0.73200
Zr843      Zr  0.50958374  0.15801853  0.99534669     2.77500
O844        O  0.50909614  0.11493601  0.04973164    -0.97500
O845        O  0.51250824  0.10430670  0.94527681    -0.78300
Zr846      Zr  0.51073185  0.24316486  0.07967614     2.70100
O847        O  0.50942176  0.19703370  0.13123086    -0.79600
O848        O  0.51950897  0.29787758  0.12817826    -0.98700
Zr849      Zr  0.58560482  0.23992100  0.99558865     2.21500
Zr850      Zr  0.92459118  0.23966322  0.99904241     2.11100
O851        O  0.96828132  0.20416265  0.04068149    -2.47400
O852        O  0.54923361  0.20088887  0.03788130    -0.79400
O853        O  0.96489151  0.19966724  0.95572087    -0.71600
O854        O  0.54811614  0.28231155  0.03923998    -2.32500
O855        O  0.54570103  0.19643370  0.95280527    -2.28700
O856        O  0.96099947  0.28587359  0.04149891    -0.73300
H857        H  0.93972827  0.29424487  0.94023425     0.78700
H858        H  0.56571721  0.29869789  0.05626862     0.79700
H859        H  0.95313947  0.18805290  0.05724058     0.82000
H860        H  0.56225831  0.18051216  0.93546001     0.79600
H861        H  0.48774262  0.36323547  0.07035658     0.42600
H862        H  0.98265965  0.31896230  0.12599852     0.41600
H863        H  0.53200351  0.17942388  0.12515895     0.41300
H864        H  0.98595770  0.12321532  0.06340044     0.39200
H865        H  0.00001614  0.12325581  0.92189249     0.42300
H866        H  0.49858956  0.19377852  0.83709111     0.37100
H867        H  0.51036324  0.30524540  0.87640145     0.43200
H868        H  0.96579145  0.36121904  0.92931231     0.39600
H869        H  0.52768551  0.12702501  0.07055141     0.44600
H870        H  0.48026704  0.16631692  0.86707056     0.43300
H871        H  0.49823582  0.38999645  0.95997677     0.43400
H872        H  0.51675354  0.28703467  0.15462509     0.43800
C873        C  0.85240020  0.10313795  0.01950563    -0.16200
C874        C  0.87753907  0.10999847  0.98997595    -0.31400
H875        H  0.85088979  0.12384421  0.04510687     0.12800
H876        H  0.87954410  0.08951507  0.96423270     0.13400
C877        C  0.64258009  0.39910661  0.98910900    -0.16200
C878        C  0.64519679  0.36387431  0.00315534    -0.31400
H879        H  0.61451044  0.40724041  0.97462987     0.12800
H880        H  0.67310204  0.35521072  0.01759083     0.13400
C881        C  0.85547396  0.39486852  0.99062442    -0.16200
C882        C  0.85451371  0.35929875  0.00407667    -0.31400
H883        H  0.88256501  0.40370279  0.97637099     0.12800
H884        H  0.82768550  0.34949411  0.01807190     0.13400
C885        C  0.64537156  0.08122308  0.00441841    -0.16200
C886        C  0.64825549  0.11739408  0.99281321    -0.31400
H887        H  0.61629650  0.07064302  0.01276821     0.12800
H888        H  0.67700174  0.12774018  0.98332555     0.13400
C889        C  0.85815973  0.25823307  0.20126659    -0.13100
C890        C  0.82546544  0.23311071  0.19675896     0.09000
C891        C  0.81599029  0.21444570  0.15919756    -0.13100
C892        C  0.83986257  0.21996422  0.12644565    -0.13100
C893        C  0.87396926  0.24360776  0.13126973     0.09000
C894        C  0.88250546  0.26325400  0.16875001    -0.13100
H895        H  0.86537381  0.27309027  0.23008039     0.13000
H896        H  0.79043487  0.19516128  0.15547439     0.13000
H897        H  0.83279862  0.20437184  0.09799320     0.13000
H898        H  0.90853375  0.28187737  0.17309440     0.13000
C899        C  0.71161902  0.24517911  0.15826164    -0.13100
C900        C  0.69965154  0.22841900  0.19325122     0.09000
C901        C  0.66003085  0.21577736  0.19571290    -0.13100
C902        C  0.63294984  0.21908765  0.16372542    -0.13100
C903        C  0.64479176  0.23491646  0.12818377     0.09000
C904        C  0.68443150  0.24802438  0.12565574    -0.13100
H905        H  0.74212612  0.25520162  0.15570393     0.13000
H906        H  0.64996659  0.20315937  0.22246044     0.13000
H907        H  0.60260339  0.20869393  0.16677843     0.13000
H908        H  0.69418374  0.26071520  0.09884103     0.13000
C909        C  0.77746878  0.31954247  0.37876178    -0.13100
C910        C  0.75317741  0.35066686  0.37011147     0.09000
C911        C  0.73499918  0.35197992  0.33153581    -0.13100
C912        C  0.73912263  0.32122227  0.30286913    -0.13100
C913        C  0.76207239  0.28933198  0.31240097     0.09000
C914        C  0.78256543  0.28967942  0.34997551    -0.13100
H915        H  0.79321893  0.31863882  0.40757205     0.13000
H916        H  0.71694291  0.37637783  0.32394443     0.13000
H917        H  0.72328085  0.32171734  0.27409935     0.13000
H918        H  0.80195211  0.26620632  0.35760757     0.13000
C919        C  0.73943481  0.09759442  0.33140740    -0.13100
C920        C  0.76918898  0.10078940  0.36214978     0.09000
C921        C  0.80112972  0.12629073  0.35964977    -0.13100
C922        C  0.80219040  0.14980594  0.32762212    -0.13100
C923        C  0.77020628  0.14968082  0.29880949     0.09000
C924        C  0.73960889  0.12209725  0.30012956    -0.13100
H925        H  0.71500008  0.07720557  0.33260782     0.13000
H926        H  0.82494737  0.12821722  0.38254659     0.13000
H927        H  0.82625635  0.17068152  0.32725764     0.13000
H928        H  0.71459427  0.12044685  0.27879842     0.13000
C929        C  0.87543699  0.34684147  0.49464403    -0.16200
C930        C  0.91465077  0.34723423  0.50543519    -0.31400
H931        H  0.86118199  0.32018424  0.48329389     0.12800
H932        H  0.92852104  0.37454075  0.51538333     0.13400
C933        C  0.60708089  0.13530542  0.50679419    -0.16200
C934        C  0.64465778  0.13301489  0.49291307    -0.31400
H935        H  0.59447670  0.11012245  0.51928522     0.12800
H936        H  0.65719746  0.15734806  0.47889953     0.13400
C937        C  0.62133130  0.36718836  0.49054325    -0.16200
C938        C  0.61949652  0.33877333  0.51606716    -0.31400
H939        H  0.59805143  0.36981484  0.46741140     0.12800
H940        H  0.64350817  0.33683211  0.53857306     0.13400
C941        C  0.90261940  0.10883892  0.50414832    -0.16200
C942        C  0.89911448  0.14579036  0.49477639    -0.31400
H943        H  0.93137452  0.09839660  0.51496274     0.12800
H944        H  0.86975649  0.15604055  0.48532458     0.13400
C945        C  0.80411328  0.26688704  0.84163013    -0.13100
C946        C  0.81065379  0.24912683  0.80355996     0.09000
C947        C  0.84311568  0.22435959  0.79778645    -0.13100
C948        C  0.87006968  0.21866302  0.82960500    -0.13100
C949        C  0.86416723  0.23695974  0.86772638     0.09000
C950        C  0.83048673  0.26046959  0.87375374    -0.13100
H951        H  0.77890333  0.28606370  0.84625413     0.13000
H952        H  0.84822725  0.21046449  0.76844350     0.13000
H953        H  0.89601715  0.20060362  0.82427213     0.13000
H954        H  0.82573089  0.27536801  0.90268106     0.13000
C955        C  0.64316373  0.25625375  0.79168985    -0.13100
C956        C  0.68379907  0.24694285  0.79618581     0.09000
C957        C  0.69841417  0.23430534  0.83302326    -0.13100
C958        C  0.67300427  0.23250657  0.86543872    -0.13100
C959        C  0.63242732  0.24246523  0.86107396     0.09000
C960        C  0.61770624  0.25383774  0.82365968    -0.13100
H961        H  0.63122820  0.26594797  0.76356239     0.13000
H962        H  0.72973792  0.22706538  0.83725970     0.13000
H963        H  0.68499697  0.22327244  0.89372968     0.13000
H964        H  0.58650426  0.26166347  0.81919210     0.13000
C965        C  0.77813537  0.35736720  0.69763061    -0.13100
C966        C  0.74628812  0.33093564  0.69812378     0.09000
C967        C  0.71507145  0.33204688  0.66866605    -0.13100
C968        C  0.71839069  0.35499746  0.63646655    -0.13100
C969        C  0.75180017  0.37882453  0.63447589     0.09000
C970        C  0.78054758  0.38144920  0.66612039    -0.13100
H971        H  0.80247715  0.35825889  0.71972604     0.13000
H972        H  0.68996380  0.31226376  0.66851766     0.13000
H973        H  0.69511699  0.35394907  0.61300730     0.13000
H974        H  0.80580119  0.40099149  0.66549636     0.13000
C975        C  0.73337124  0.19025980  0.64446397    -0.13100
C976        C  0.75212795  0.19076747  0.68289300     0.09000
C977        C  0.77426711  0.15877332  0.69372051    -0.13100
C978        C  0.77899594  0.12753955  0.66576721    -0.13100
C979        C  0.76215898  0.12837688  0.62659318     0.09000
C980        C  0.73888118  0.15975858  0.61646930    -0.13100
H981        H  0.71483425  0.21391709  0.63565707     0.13000
H982        H  0.78900051  0.15849679  0.72306334     0.13000
H983        H  0.79652862  0.10315777  0.67440354     0.13000
H984        H  0.72436839  0.16047020  0.58702939     0.13000
C985        C  0.75050344  0.79276375  0.72313499     0.86700
C986        C  0.71373355  0.78916019  0.74904331    -0.53600
C987        C  0.71191744  0.75556653  0.76791671     0.09600
C988        C  0.74689601  0.72791034  0.75775702     0.20600
C989        C  0.78647688  0.78617389  0.75207162    -0.54300
C990        C  0.78434763  0.75223011  0.77021915     0.09700
C991        C  0.74962516  0.75745833  0.69416898    -0.53800
C992        C  0.74692711  0.72358177  0.71127739     0.10300
H993        H  0.69268901  0.81254356  0.75417668     0.14800
H994        H  0.74544994  0.70028893  0.77233680     0.00500
H995        H  0.81024830  0.80678546  0.75981452     0.15100
H996        H  0.75177178  0.75930666  0.66190385     0.14900
O997        O  0.65388525  0.56418453  0.49490087    -0.75100
O998        O  0.70799210  0.60386088  0.48972117    -0.54000
C999        C  0.67004290  0.59756754  0.49164313     0.78600
O1000       O  0.76221643  0.93711253  0.61364607    -0.59700
O1001       O  0.75202476  0.88766059  0.56613846    -0.52700
C1002       C  0.75669573  0.90170428  0.60265740     0.70600
O1003       O  0.76330159  0.56344746  0.60799260    -0.74300
O1004       O  0.76435095  0.60392080  0.55702975    -0.54800
C1005       C  0.76293816  0.59690861  0.59450272     0.76700
O1006       O  0.64166871  0.93503912  0.50654866    -0.59400
O1007       O  0.68664383  0.88564123  0.50212462    -0.52500
C1008       C  0.65079114  0.89904406  0.50533115     0.73200
Zr1009     Zr  0.67493009  0.99755681  0.50165016     2.54700
O1010       O  0.62739199  0.00652024  0.55539983    -0.80000
O1011       O  0.62236942  0.99617997  0.44921232    -0.93400
Zr1012     Zr  0.76425708  0.99712748  0.58267225     2.61700
O1013       O  0.71137463  0.50509449  0.63076264    -0.98300
O1014       O  0.82053636  0.99879430  0.63097226    -0.80400
O1015       O  0.72187393  0.53448152  0.53706098    -0.83800
O1016       O  0.71570894  0.96032944  0.54376252    -2.18500
O1017       O  0.74693467  0.91682087  0.38737319    -0.67100
O1018       O  0.74976853  0.87627506  0.43821838    -0.51700
C1019       C  0.74818003  0.88329909  0.40071108     0.71600
O1020       O  0.87810515  0.54602486  0.50030759    -0.60100
O1021       O  0.83259697  0.59462842  0.49561367    -0.52000
C1022       C  0.86875978  0.58174822  0.49858869     0.73400
O1023       O  0.86559918  0.91442530  0.49792652    -0.71400
O1024       O  0.81089283  0.87482930  0.49886190    -0.50100
C1025       C  0.84893981  0.88092503  0.49745427     0.74800
O1026       O  0.76074771  0.54075939  0.38158898    -0.66800
O1027       O  0.77041306  0.59076519  0.42850661    -0.54000
C1028       C  0.76623709  0.57630511  0.39203682     0.73200
Zr1029     Zr  0.75404139  0.98147724  0.41654112     2.77500
O1030       O  0.80309686  0.97345318  0.36414319    -0.97500
O1031       O  0.69711697  0.98152219  0.36889238    -0.78300
Zr1032     Zr  0.84405830  0.98196437  0.49861579     2.70100
O1033       O  0.89268424  0.97559908  0.44566273    -0.79600
O1034       O  0.89479236  0.97927061  0.55252816    -0.98700
Zr1035     Zr  0.76696573  0.56368553  0.49412707     2.21500
Zr1036     Zr  0.75223176  0.91597451  0.50136845     2.11100
O1037       O  0.79633929  0.94536990  0.45772895    -2.47400
O1038       O  0.80533586  0.51933541  0.45389560    -0.79400
O1039       O  0.70978937  0.95215689  0.45941996    -0.71600
O1040       O  0.80752891  0.52799831  0.53848453    -2.32500
O1041       O  0.71972174  0.52604200  0.45316025    -2.28700
O1042       O  0.80073109  0.95200027  0.54226940    -0.73300
H1043       H  0.69891054  0.94694654  0.56137792     0.78700
H1044       H  0.82526394  0.54464478  0.55515900     0.79700
H1045       H  0.81030229  0.92647492  0.44109191     0.82000
H1046       H  0.70440443  0.54185944  0.43565731     0.79600
H1047       H  0.83349148  0.47804375  0.62329723     0.42600
H1048       H  0.88526160  0.95893920  0.56928369     0.41600
H1049       H  0.88238552  0.45976276  0.42498019     0.41300
H1050       H  0.81655509  0.94880340  0.36871470     0.39200
H1051       H  0.68695874  0.00817133  0.37065354     0.42300
H1052       H  0.62988004  0.51908535  0.42799036     0.37100
H1053       H  0.63558529  0.52716512  0.56546219     0.43200
H1054       H  0.69611484  0.98318572  0.62981630     0.39600
H1055       H  0.78679571  0.96830925  0.33906188     0.44600
H1056       H  0.59983219  0.01060006  0.46155573     0.43300
H1057       H  0.72924238  0.00113921  0.65971927     0.43400
H1058       H  0.91869299  0.96808077  0.53934570     0.43800
N1059       N  0.51268363  0.79870500  0.50440959    -0.36400
N1060       N  0.57148282  0.73665069  0.49799876    -0.57000
N1061       N  0.50610729  0.68154484  0.50063384    -0.36400
N1062       N  0.94803140  0.74261185  0.49209423    -0.57000
C1063       C  0.54562306  0.81649060  0.49140522     0.27200
C1064       C  0.98096854  0.81963937  0.48642136     0.27200
C1065       C  0.53746270  0.65916211  0.48921248     0.27200
C1066       C  0.97361828  0.66177155  0.48241694     0.27200
C1067       C  0.59563585  0.76730476  0.50762797     0.35800
C1068       C  0.59239469  0.70511996  0.50766843     0.35800
C1069       C  0.92830069  0.77483038  0.50479468     0.35800
C1070       C  0.92480022  0.71258799  0.50077576     0.35800
C1071       C  0.53379470  0.84860421  0.47176890    -0.21700
C1072       C  0.99297507  0.85129893  0.46682110    -0.21700
C1073       C  0.52321205  0.62586631  0.46879073    -0.21700
C1074       C  0.98427958  0.62687424  0.46351909    -0.21700
C1075       C  0.63197867  0.75527471  0.52368360    -0.22700
C1076       C  0.62972801  0.71596801  0.52423687    -0.22700
C1077       C  0.89284676  0.76505035  0.52240026    -0.22700
C1078       C  0.89024721  0.72568706  0.51908126    -0.22700
C1079       C  0.58595095  0.80556899  0.49957330    -0.18100
C1080       C  0.94128218  0.81253010  0.49796962    -0.18100
C1081       C  0.93384483  0.67363131  0.49093288    -0.18100
C1082       C  0.57838533  0.66691498  0.49930936    -0.18100
H1083       H  0.55266979  0.86834936  0.45715811     0.14800
H1084       H  0.97405207  0.87361371  0.45555042     0.14800
H1085       H  0.54074212  0.60234856  0.45593664     0.14800
H1086       H  0.96450402  0.60478526  0.44990742     0.14800
H1087       H  0.65729613  0.77296590  0.53438328     0.13100
H1088       H  0.65295512  0.69773693  0.53583675     0.13100
H1089       H  0.87110629  0.78402555  0.53652762     0.13100
H1090       H  0.86612392  0.70864988  0.52979882     0.13100
H1091       H  0.51267647  0.77584573  0.52299784     0.26400
H1092       H  0.50791840  0.70621595  0.51990772     0.26400
C1093       C  0.76450453  0.68600458  0.27140996     0.86700
C1094       C  0.72737792  0.69049442  0.24333680    -0.53600
C1095       C  0.72582889  0.72504083  0.22593828     0.09600
C1096       C  0.76132917  0.75195045  0.23860385     0.20600
C1097       C  0.80019184  0.69334796  0.24481402    -0.54300
C1098       C  0.79821715  0.72766315  0.22735720     0.09700
C1099       C  0.76279721  0.72066190  0.30124194    -0.53800
C1100       C  0.76192873  0.75513053  0.28492125     0.10300
H1101       H  0.70559628  0.66800304  0.23555474     0.14800
H1102       H  0.76041087  0.78005871  0.22489236     0.00500
H1103       H  0.82339444  0.67225520  0.23824278     0.15100
H1104       H  0.76175006  0.71785073  0.33343770     0.14900
N1105       N  0.76531829  0.93380398  0.00410338    -0.36400
N1106       N  0.69800996  0.98608147  0.00338377    -0.57000
N1107       N  0.75353739  0.55629190  0.00804022    -0.36400
N1108       N  0.82125520  0.99817943  0.01395273    -0.57000
C1109       C  0.73397819  0.91068274  0.01117439     0.27200
C1110       C  0.79875913  0.91729678  0.01911867     0.27200
C1111       C  0.72138513  0.57965527  0.01467031     0.27200
C1112       C  0.78754420  0.57770290  0.01500448     0.27200
C1113       C  0.67949430  0.95299427  0.98981181     0.35800
C1114       C  0.66631848  0.52969245  0.01080924     0.35800
C1115       C  0.84787387  0.96906407  0.00978322     0.35800
C1116       C  0.83895352  0.52490415  0.01417761     0.35800
C1117       C  0.74741404  0.87964793  0.03152364    -0.21700
C1118       C  0.78823928  0.88411601  0.03708526    -0.21700
C1119       C  0.73542939  0.61643533  0.02555149    -0.21700
C1120       C  0.77676690  0.61525526  0.02547605    -0.21700
C1121       C  0.64317171  0.96098108  0.97079481    -0.22700
C1122       C  0.62653160  0.51847402  0.01388666    -0.22700
C1123       C  0.88596335  0.98362296  0.00453864    -0.22700
C1124       C  0.87789352  0.51190452  0.02021497    -0.22700
C1125       C  0.69396370  0.91602166  0.99778030    -0.18100
C1126       C  0.83864360  0.92997514  0.01418471    -0.18100
C1127       C  0.82812263  0.56425677  0.01502400    -0.18100
C1128       C  0.67982973  0.56861547  0.01352062    -0.18100
H1129       H  0.72962569  0.85631816  0.04149481     0.14800
H1130       H  0.80797821  0.86481380  0.05231281     0.14800
H1131       H  0.71798439  0.64144136  0.03453265     0.14800
H1132       H  0.79658980  0.63913151  0.03420537     0.14800
H1133       H  0.62163639  0.94071705  0.95672129     0.13100
H1134       H  0.60033382  0.53633846  0.01806329     0.13100
H1135       H  0.91377006  0.96796084  0.00121363     0.13100
H1136       H  0.90502577  0.52865393  0.02608795     0.13100
H1137       H  0.76450112  0.95691676  0.98586038     0.26400
H1138       H  0.75240262  0.52766785  0.99781655     0.26400
O1139       O  0.56497992  0.74814275  0.88701389    -0.75100
O1140       O  0.61509333  0.75046455  0.93519689    -0.54000
C1141       C  0.60214858  0.74963325  0.89828346     0.78600
O1142       O  0.93842033  0.85044803  0.00225246    -0.59700
O1143       O  0.89216587  0.80182930  0.99898733    -0.52700
C1144       C  0.90210711  0.83752925  0.00069157     0.70600
O1145       O  0.56417336  0.85896759  0.00619270    -0.74300
O1146       O  0.61438920  0.81453391  0.00076721    -0.54800
C1147       C  0.60134119  0.84940856  0.00448440     0.76700
O1148       O  0.93646444  0.73374019  0.88696905    -0.59400
O1149       O  0.89035225  0.73920889  0.93605781    -0.52500
C1150       C  0.90015984  0.73571680  0.89898793     0.73200
Zr1151     Zr  0.49980873  0.74437688  0.91603132     2.54700
O1152       O  0.49347888  0.79340388  0.86770961    -0.80000
O1153       O  0.01000480  0.68290749  0.86875974    -0.93400
Zr1154     Zr  0.49829575  0.82894862  0.00114693     2.64700
O1155       O  0.49635547  0.87237199  0.94697001    -0.98300
O1156       O  0.49550939  0.88074331  0.05335293    -0.80400
O1157       O  0.53820148  0.78907579  0.95781395    -0.83800
O1158       O  0.96615926  0.78124538  0.95739050    -2.18500
O1159       O  0.93840181  0.63451409  0.99832023    -0.67100
O1160       O  0.89200253  0.68262517  0.99555152    -0.51700
C1161       C  0.90180823  0.64716754  0.99637578     0.71600
O1162       O  0.57090790  0.74832184  0.11081134    -0.60100
O1163       O  0.61825631  0.75136232  0.06316400    -0.52000
C1164       C  0.60742546  0.74853997  0.09967613     0.73400
O1165       O  0.94218612  0.75004031  0.11093776    -0.71400
O1166       O  0.89341439  0.74327981  0.06154510    -0.50100
C1167       C  0.90527852  0.74706897  0.09868467     0.74800
O1168       O  0.57474991  0.64378037  0.00144946    -0.66800
O1169       O  0.61942913  0.69304967  0.99645717    -0.54000
C1170       C  0.61079759  0.65735851  0.99901111     0.73200
Zr1171     Zr  0.50446340  0.66721444  0.99768920     2.77500
O1172       O  0.50767473  0.62078652  0.04906159    -0.97500
O1173       O  0.50609347  0.61695892  0.94363569    -0.78300
Zr1174     Zr  0.50397341  0.75225872  0.08200645     2.70100
O1175       O  0.50431629  0.70493586  0.13233760    -0.79600
O1176       O  0.50802982  0.80619915  0.13198033    -0.98700
Zr1177     Zr  0.58035370  0.75182868  0.99904365     2.21500
Zr1178     Zr  0.92929623  0.74207061  0.99905928     2.11100
O1179       O  0.96933333  0.70354841  0.04119521    -2.47400
O1180       O  0.54334144  0.71145434  0.03986445    -0.79400
O1181       O  0.96678330  0.69878409  0.95677531    -0.71600
O1182       O  0.54093402  0.79267235  0.04254047    -2.32500
O1183       O  0.54161025  0.70684085  0.95640691    -2.28700
O1184       O  0.96779333  0.78595192  0.04218898    -0.73300
H1185       H  0.94834192  0.79578616  0.94080244     0.78700
H1186       H  0.55787300  0.80935067  0.06006818     0.79700
H1187       H  0.95263651  0.68873648  0.05766739     0.82000
H1188       H  0.55893766  0.69112428  0.93949608     0.79600
H1189       H  0.50909427  0.87034300  0.07707584     0.42600
H1190       H  0.98640500  0.81636100  0.12750453     0.41600
H1191       H  0.51301233  0.68093391  0.11777058     0.41300
H1192       H  0.98530816  0.62142081  0.06652177     0.39200
H1193       H  0.03062071  0.61569957  0.92919950     0.42300
H1194       H  0.52537747  0.67762153  0.86975931     0.37100
H1195       H  0.51403839  0.81286287  0.87671130     0.43200
H1196       H  0.97872446  0.86483131  0.93381281     0.39600
H1197       H  0.50996047  0.59563203  0.03386407     0.44600
H1198       H  0.50651968  0.70501290  0.83898646     0.43300
H1199       H  0.49498928  0.89826886  0.96076644     0.43400
H1200       H  0.50843500  0.79426006  0.15808199     0.43800
C1201       C  0.86219774  0.59276210  0.01964419    -0.16200
C1202       C  0.86770361  0.61960917  0.99324685    -0.31400
H1203       H  0.88458064  0.59000309  0.04363682     0.12800
H1204       H  0.84487159  0.62322212  0.96986189     0.13400
C1205       C  0.66697993  0.88146172  0.99369516    -0.16200
C1206       C  0.62977074  0.88213829  0.00804189    -0.31400
H1207       H  0.67887115  0.85462891  0.98077723     0.12800
H1208       H  0.61862758  0.90883392  0.02199596     0.13400
C1209       C  0.87245292  0.90176170  0.01557285    -0.16200
C1210       C  0.86895818  0.86538806  0.99971386    -0.31400
H1211       H  0.90115366  0.91125048  0.02904736     0.12800
H1212       H  0.84068183  0.85533684  0.98571773     0.13400
C1213       C  0.64767786  0.59892491  0.01866680    -0.16200
C1214       C  0.64521281  0.63016783  0.99704868    -0.31400
H1215       H  0.62365684  0.59416264  0.03904341     0.12800
H1216       H  0.66921726  0.63619277  0.97706340     0.13400
C1217       C  0.85833238  0.75840306  0.20041542    -0.13100
C1218       C  0.82363773  0.73605476  0.19378254     0.09000
C1219       C  0.81370300  0.72035759  0.15500271    -0.13100
C1220       C  0.83909390  0.72578734  0.12327092    -0.13100
C1221       C  0.87507788  0.74653034  0.13015599     0.09000
C1222       C  0.88399851  0.76349775  0.16884846    -0.13100
H1223       H  0.86611092  0.77089082  0.23018712     0.13000
H1224       H  0.78677479  0.70310813  0.14957382     0.13000
H1225       H  0.83158255  0.71222263  0.09389964     0.13000
H1226       H  0.91139551  0.77989672  0.17492078     0.13000
C1227       C  0.70565476  0.75334902  0.16090945    -0.13100
C1228       C  0.69526643  0.73346458  0.19448269     0.09000
C1229       C  0.65592134  0.71970919  0.19681235    -0.13100
C1230       C  0.62775445  0.72498927  0.16600988    -0.13100
C1231       C  0.63821113  0.74398894  0.13188904     0.09000
C1232       C  0.67742141  0.75828742  0.12964806    -0.13100
H1233       H  0.73588197  0.76406408  0.15815838     0.13000
H1234       H  0.64687711  0.70471970  0.22247379     0.13000
H1235       H  0.59777258  0.71353181  0.16867334     0.13000
H1236       H  0.68615902  0.77329523  0.10389175     0.13000
C1237       C  0.77724818  0.82099477  0.37785429    -0.13100
C1238       C  0.75089159  0.85096391  0.37043689     0.09000
C1239       C  0.73101448  0.85156012  0.33258597    -0.13100
C1240       C  0.73587534  0.82129638  0.30341886    -0.13100
C1241       C  0.76129556  0.79065376  0.31161208     0.09000
C1242       C  0.78292222  0.79158685  0.34857626    -0.13100
H1243       H  0.79413989  0.82070194  0.40609380     0.13000
H1244       H  0.71118467  0.87501270  0.32595034     0.13000
H1245       H  0.71880282  0.82114970  0.27527460     0.13000
H1246       H  0.80371246  0.76890456  0.35529791     0.13000
C1247       C  0.73621642  0.60008773  0.32962694    -0.13100
C1248       C  0.76738878  0.60164653  0.35892070     0.09000
C1249       C  0.80068749  0.62514113  0.35447805    -0.13100
C1250       C  0.80161828  0.64867492  0.32235035    -0.13100
C1251       C  0.76838853  0.65051033  0.29521270     0.09000
C1252       C  0.73643864  0.62451892  0.29817319    -0.13100
H1253       H  0.71081739  0.58103814  0.33209641     0.13000
H1254       H  0.82569392  0.62555585  0.37604218     0.13000
H1255       H  0.82679030  0.66814657  0.32075601     0.13000
H1256       H  0.71041613  0.62421334  0.27813583     0.13000
C1257       C  0.87467333  0.84636450  0.49342938    -0.16200
C1258       C  0.91416705  0.84669961  0.50341337    -0.31400
H1259       H  0.86046211  0.82004311  0.48107550     0.12800
H1260       H  0.92796689  0.87377690  0.51429681     0.13400
C1261       C  0.60573243  0.63286253  0.50186987    -0.16200
C1262       C  0.64374225  0.63172915  0.48918558    -0.31400
H1263       H  0.59313745  0.60702036  0.51301180     0.12800
H1264       H  0.65644709  0.65683665  0.47672767     0.13400
C1265       C  0.61715620  0.87155921  0.50842903    -0.16200
C1266       C  0.61993682  0.83376235  0.49746991    -0.31400
H1267       H  0.58919628  0.88306275  0.51985978     0.12800
H1268       H  0.64858336  0.82269110  0.48725342     0.13400
C1269       C  0.90266158  0.60949607  0.50104886    -0.16200
C1270       C  0.89964231  0.64535147  0.48853791    -0.31400
H1271       H  0.93116285  0.59977402  0.51328805     0.12800
H1272       H  0.87061974  0.65503406  0.47744487     0.13400
C1273       C  0.80428469  0.76006240  0.84267084    -0.13100
C1274       C  0.81153667  0.74374948  0.80408890     0.09000
C1275       C  0.84615554  0.72191488  0.79758821    -0.13100
C1276       C  0.87429728  0.71794076  0.82900853    -0.13100
C1277       C  0.86790330  0.73538842  0.86748782     0.09000
C1278       C  0.83206103  0.75559504  0.87428694    -0.13100
H1279       H  0.77769643  0.77724427  0.84798120     0.13000
H1280       H  0.85205243  0.70916138  0.76792722     0.13000
H1281       H  0.90156510  0.70201726  0.82298764     0.13000
H1282       H  0.82648082  0.76957864  0.90347807     0.13000
C1283       C  0.64431280  0.76592615  0.79707159    -0.13100
C1284       C  0.68305994  0.75053467  0.80022486     0.09000
C1285       C  0.69519375  0.73413533  0.83603880    -0.13100
C1286       C  0.66948715  0.73445708  0.86859682    -0.13100
C1287       C  0.63097294  0.75048173  0.86547093     0.09000
C1288       C  0.61860639  0.76579684  0.82916941    -0.13100
H1289       H  0.63393636  0.77844807  0.76979942     0.13000
H1290       H  0.72496551  0.72220570  0.83942180     0.13000
H1291       H  0.67951268  0.72190554  0.89596371     0.13000
H1292       H  0.58900410  0.77818726  0.82567803     0.13000
C1293       C  0.78280866  0.85236839  0.69661398    -0.13100
C1294       C  0.74964565  0.82768669  0.69859956     0.09000
C1295       C  0.71725218  0.83064380  0.67068528    -0.13100
C1296       C  0.72015530  0.85384665  0.63864153    -0.13100
C1297       C  0.75451295  0.87610201  0.63519805     0.09000
C1298       C  0.78491770  0.87675510  0.66525580    -0.13100
H1299       H  0.80806428  0.85179292  0.71757014     0.13000
H1300       H  0.69108545  0.81229323  0.67173373     0.13000
H1301       H  0.69570092  0.85435372  0.61650420     0.13000
H1302       H  0.81098896  0.89511571  0.66356291     0.13000
C1303       C  0.72509652  0.68725374  0.64762580    -0.13100
C1304       C  0.74635052  0.68782209  0.68488666     0.09000
C1305       C  0.77228691  0.65753888  0.69263740    -0.13100
C1306       C  0.77815647  0.62807333  0.66290468    -0.13100
C1307       C  0.75874262  0.62897420  0.62486081     0.09000
C1308       C  0.73173022  0.65850063  0.61771188    -0.13100
H1309       H  0.70438104  0.71006039  0.64106646     0.13000
H1310       H  0.78933530  0.65760863  0.72079087     0.13000
H1311       H  0.79855865  0.60497643  0.66925537     0.13000
H1312       H  0.71531903  0.65901568  0.58921604     0.13000
loop_ 
_geom_bond_atom_site_label_1 
_geom_bond_atom_site_label_2 
_geom_bond_distance 
_geom_bond_site_symmetry_2 
_ccdc_geom_bond_type 
C1            C2   1.533       .  S
C1            C7   1.516       .  S
C1            C5   1.541       .  S
C1          C310   1.511       .  S
C2            H9   1.086       .  S
C2            C3   1.371       .  D
C3            C4   1.543       .  S
C3          C300   1.482       .  S
C4            C8   1.546       .  S
C4            C6   1.535       .  S
C4           H10   1.111       .  S
C5           H11   1.083       .  S
C5            C6   1.367       .  D
C6          C290   1.464       .  S
C7           H12   1.088       .  S
C7            C8   1.351       .  D
C8          C320   1.478       .  S
O13          C15   1.295       .  A
O13        Zr353   2.471   1_545  S
O14          C15   1.286       .  A
O14         Zr51   2.419       .  S
C15         C278   1.483       .  S
O16          C18   1.280       .  A
O16         Zr28   2.407       .  S
O17          C18   1.287       .  A
O17         Zr52   2.428       .  S
C18         C313   1.455       .  S
O19          C21   1.280       .  A
O19        Zr356   2.402   1_545  S
O20          C21   1.292       .  A
O20         Zr51   2.451       .  S
C21         C323   1.469       .  S
O22          C24   1.291       .  A
O22         Zr25   2.457       .  S
O23          C24   1.288       .  A
O23         Zr52   2.428       .  S
C24         C281   1.482       .  S
Zr25        O341   2.470       .  S
Zr25         O26   2.434       .  S
Zr25         O27   2.435       .  S
Zr25         O32   2.375       .  S
Zr25         O55   2.379       .  S
Zr25        O359   2.368       .  S
Zr25        O385   2.372       .  S
O26         H397   0.990       .  S
O27          H72   0.990       .  S
O27         H396   0.990       .  S
Zr28        O347   2.404       .  S
Zr28         O30   2.438       .  S
Zr28        O357   2.435       .  S
Zr28         O32   2.368       .  S
Zr28         O58   2.364       .  S
Zr28        O359   2.371       .  S
Zr28        O384   2.356       .  S
O29        Zr356   2.437   1_545  S
O29         H398   0.990   1_545  S
O29         H401   0.990   1_545  S
O30         H391   0.990       .  S
O31         Zr51   2.382       .  S
O31        Zr353   2.370   1_545  S
O31        Zr356   2.365   1_545  S
O32         Zr52   2.384       .  S
O32          H59   0.966       .  S
O33          C35   1.280       .  A
O33         Zr45   2.407       .  S
O34          C35   1.290       .  A
O34         Zr52   2.440       .  S
C35         C254   1.469       .  S
O36          C38   1.291       .  A
O36        Zr376   2.459   1_545  S
O37          C38   1.289       .  A
O37         Zr51   2.432       .  S
C38         C285   1.484       .  S
O39          C41   1.295       .  A
O39         Zr48   2.472       .  S
O40          C41   1.284       .  A
O40         Zr52   2.414       .  S
C41         C273   1.477       .  S
O42          C44   1.279       .  A
O42        Zr373   2.398   1_545  S
O43          C44   1.291       .  A
O43         Zr51   2.450       .  S
C44         C264   1.462       .  S
Zr45        O370   2.394       .  S
Zr45         O46   2.436       .  S
Zr45         O47   2.435       .  S
Zr45         O53   2.361       .  S
Zr45         O55   2.366       .  S
Zr45        O382   2.375       .  S
Zr45        O385   2.361       .  S
O46          H66   0.990       .  S
O46          H71   0.990       .  S
O47          H67   0.990       .  S
Zr48        O364   2.464       .  S
Zr48         O49   2.436       .  S
Zr48         O50   2.435       .  S
Zr48         O53   2.376       .  S
Zr48         O58   2.369       .  S
Zr48        O382   2.378       .  S
Zr48        O384   2.372       .  S
O49         H393   0.990       .  S
O50          H64   0.990       .  S
O50          H74   0.990       .  S
Zr51         O54   2.384       .  S
Zr51         O56   2.387       .  S
Zr51         O57   2.389       .  S
Zr52         O53   2.381       .  S
Zr52         O55   2.376       .  S
Zr52         O58   2.388       .  S
O53          H61   0.964       .  S
O54        Zr373   2.377   1_545  S
O54        Zr376   2.382   1_545  S
O56        Zr356   2.361   1_545  S
O56        Zr376   2.375   1_545  S
O56          H60   0.967       .  S
O57        Zr353   2.373   1_545  S
O57        Zr373   2.364   1_545  S
O57          H62   0.965       .  S
H63         O358   0.990   1_565  S
H65         O377   0.990       .  S
H68         O355   0.990   1_545  S
H69         O354   0.990       .  S
H70         O357   0.990       .  S
H73         O357   0.990       .  S
N75         H107   1.043       .  S
N75          C79   1.355       .  A
N75         C736   1.352   1_455  A
N76          C83   1.352       .  A
N76          C84   1.353       .  A
N77         H108   1.043       .  S
N77          C81   1.354       .  A
N77         C738   1.357   1_455  A
N78          C85   1.355       .  A
N78          C86   1.354       .  A
C79          C87   1.387       .  A
C79          C95   1.418       .  A
C80         N731   1.357       .  A
C80          C96   1.421       .  A
C80          C88   1.386       .  A
C81          C89   1.385       .  A
C81          C98   1.415       .  A
C82         N733   1.358       .  A
C82          C97   1.423       .  A
C82          C90   1.388       .  A
C83          C95   1.413       .  A
C83          C91   1.386       .  A
C84          C98   1.417       .  A
C84          C92   1.388       .  A
C85          C93   1.386       .  A
C85          C96   1.420       .  A
C86          C94   1.386       .  A
C86          C97   1.418       .  A
C87         C744   1.377   1_455  A
C87          H99   1.082       .  S
C88         C743   1.367       .  A
C88         H100   1.082       .  S
C89         C746   1.376   1_455  A
C89         H101   1.082       .  S
C90         C745   1.376       .  A
C90         H102   1.082       .  S
C91          C92   1.377       .  A
C91         H103   1.082       .  S
C92         H104   1.082       .  S
C93          C94   1.373       .  A
C93         H105   1.082       .  S
C94         H106   1.082       .  S
C95         C282   1.501       .  S
C96         C274   1.501       .  S
C97         C286   1.505       .  S
C98         C277   1.499       .  S
C109        C110   1.544       .  S
C109        C115   1.516       .  S
C109        C113   1.535       .  S
C109        C267   1.518       .  S
C110        H117   1.082       .  S
C110        C111   1.375       .  D
C111        C112   1.542       .  S
C111        C244   1.489       .  S
C112        C116   1.548       .  S
C112        C114   1.539       .  S
C112        H118   1.110       .  S
C113        H119   1.086       .  S
C113        C114   1.367       .  D
C114        C234   1.469       .  S
C115        H120   1.088       .  S
C115        C116   1.352       .  D
C116        C257   1.482       .  S
N121        H153   1.041   1_554  S
N121        C126   1.356       .  A
N121        C125   1.352       .  A
N122        C129   1.359   1_554  A
N122        C458   1.357   1_554  A
N123        H154   1.040   1_554  S
N123        C128   1.354       .  A
N123        C127   1.354       .  A
N124        C131   1.353   1_554  A
N124        C460   1.350   1_554  A
C125        C133   1.386       .  A
C125        C141   1.413   1_554  A
C126        C142   1.418       .  A
C126        C134   1.387       .  A
C127        C135   1.388       .  A
C127        C144   1.418       .  A
C128        C143   1.413       .  A
C128        C136   1.387       .  A
C129        C141   1.424       .  A
C129        C137   1.386       .  A
C130        N450   1.355   1_545  A
C130        C144   1.420       .  A
C130        C138   1.387   1_554  A
C131        C139   1.386       .  A
C131        C142   1.411   1_556  A
C132        N452   1.356       .  A
C132        C140   1.387       .  A
C132        C143   1.420       .  A
C133        C134   1.375       .  A
C133        H145   1.082       .  S
C134        H146   1.082       .  S
C135        C136   1.374       .  A
C135        H147   1.082       .  S
C136        H148   1.082       .  S
C137        C466   1.376       .  A
C137        H149   1.081       .  S
C138        C465   1.373   1_545  A
C138        H150   1.082       .  S
C139        C468   1.369       .  A
C139        H151   1.082       .  S
C140        C467   1.372   1_545  A
C140        H152   1.081       .  S
C141        C221   1.504       .  S
C142        C225   1.499       .  S
C143        C217   1.494       .  S
C144        C229   1.499       .  S
O155        C157   1.285       .  A
O155       Zr167   2.422   1_455  S
O156        C157   1.290       .  A
O156       Zr193   2.444       .  S
C157        C303   1.478       .  S
O158        C160   1.293       .  A
O158       Zr826   2.463       .  S
O159        C160   1.286       .  A
O159       Zr194   2.424       .  S
C160        C226   1.478       .  S
O161        C163   1.286       .  A
O161       Zr170   2.436   1_454  S
O162        C163   1.295       .  A
O162       Zr193   2.463   1_554  S
C163        C222   1.485       .  S
O164        C166   1.283       .  A
O164       Zr823   2.413       .  S
O165        C166   1.289       .  A
O165       Zr194   2.436       .  S
C166        C293   1.473       .  S
Zr167       O820   2.420       .  S
Zr167       O168   2.433       .  S
Zr167       O825   2.438   1_655  S
Zr167       O173   2.373   1_655  S
Zr167       O199   2.364   1_655  S
Zr167       O830   2.367       .  S
Zr167       O853   2.368       .  S
O168        H211   0.990   1_655  S
O169       Zr823   2.435       .  S
O169        H866   0.990       .  S
O169        H870   0.990       .  S
Zr170       O814   2.464       .  S
Zr170       O171   2.434       .  S
Zr170       O172   2.433   1_556  S
Zr170       O173   2.380   1_655  S
Zr170       O198   2.380   1_656  S
Zr170       O830   2.362       .  S
Zr170       O856   2.371   1_556  S
O171        H215   0.990       .  S
O171        H868   0.990       .  S
O172        H205   0.990   1_655  S
O173       Zr193   2.393       .  S
O174       Zr194   2.390       .  S
O174       Zr823   2.359       .  S
O174       Zr826   2.379       .  S
O174        H201   0.966       .  S
O175        C177   1.287       .  A
O175       Zr843   2.444       .  S
O176        C177   1.289       .  A
O176       Zr194   2.439       .  S
C177        C218   1.472       .  S
O178        C180   1.284       .  A
O178       Zr190   2.415       .  S
O179        C180   1.292       .  A
O179       Zr193   2.456   1_554  S
C180        C247   1.484       .  S
O181        C183   1.284       .  A
O181       Zr846   2.419       .  S
O182        C183   1.290       .  A
O182       Zr194   2.441   1_554  S
C183        C237   1.481       .  S
O184        C186   1.288       .  A
O184       Zr187   2.436       .  S
O185        C186   1.291       .  A
O185       Zr193   2.448       .  S
C186        C230   1.483       .  S
Zr187       O831   2.447   1_455  S
Zr187       O188   2.436   1_556  S
Zr187       O189   2.435       .  S
Zr187       O196   2.372   1_556  S
Zr187       O199   2.371       .  S
Zr187       O851   2.370   1_456  S
Zr187       O853   2.369   1_455  S
O188        H213   0.990       .  S
O188        H864   0.990   1_455  S
O189        H865   0.990       .  S
Zr190       O837   2.416   1_455  S
Zr190       O191   2.433       .  S
Zr190       O192   2.434       .  S
Zr190       O196   2.366       .  S
Zr190       O198   2.361       .  S
Zr190       O851   2.367   1_455  S
Zr190       O856   2.365   1_455  S
O191        H207   0.990       .  S
O192        H216   0.990       .  S
O192        H862   0.990   1_455  S
Zr193       O196   2.387   1_556  S
Zr193       O198   2.394   1_556  S
Zr193       O199   2.397       .  S
Zr194       O195   2.385   1_556  S
Zr194       O197   2.387       .  S
Zr194       O200   2.387   1_556  S
O195       Zr843   2.376   1_554  S
O195       Zr846   2.363       .  S
O195        H203   0.967       .  S
O197       Zr823   2.361       .  S
O197       Zr843   2.378       .  S
O198        H202   0.965       .  S
O199        H204   0.964       .  S
O200       Zr826   2.382   1_554  S
O200       Zr846   2.362       .  S
H206        O848   0.990       .  S
H208        O844   0.990       .  S
H209        O845   0.990       .  S
H210        O825   0.990       .  S
H212        O827   0.990       .  S
H214        O825   0.990       .  S
C217        H219   1.086       .  S
C217        C218   1.343   1_554  D
C218        H220   1.086       .  S
C221        H223   1.087       .  S
C221        C222   1.344   1_556  D
C222        H224   1.086       .  S
C225        H227   1.087       .  S
C225        C226   1.344   1_554  D
C226        H228   1.086       .  S
C229        H231   1.086       .  S
C229        C230   1.352   1_554  D
C230        H232   1.086       .  S
C233        C234   1.396       .  A
C233        C238   1.397       .  A
C233        H239   1.083       .  S
C234        C235   1.403       .  A
C235        C236   1.398       .  A
C235        H240   1.083       .  S
C236        C237   1.405       .  A
C236        H241   1.083       .  S
C237        C238   1.411       .  A
C238        H242   1.083       .  S
C243        C244   1.410       .  A
C243        C248   1.406       .  A
C243        H249   1.081       .  S
C244        C245   1.401       .  A
C245        C246   1.392       .  A
C245        H250   1.083       .  S
C246        C247   1.408       .  A
C246        H251   1.083       .  S
C247        C248   1.404       .  A
C248        H252   1.083       .  S
C253        C254   1.397       .  A
C253        C258   1.389       .  A
C253        H259   1.084       .  S
C254        C255   1.410       .  A
C255        C256   1.402       .  A
C255        H260   1.083       .  S
C256        C257   1.400       .  A
C256        H261   1.083       .  S
C257        C258   1.411       .  A
C258        H262   1.083       .  S
C263        C264   1.402       .  A
C263        C268   1.394       .  A
C263        H269   1.084       .  S
C264        C265   1.396       .  A
C265        C266   1.396       .  A
C265        H270   1.083       .  S
C266        C267   1.414       .  A
C266        H271   1.083       .  S
C267        C268   1.406       .  A
C268        H272   1.078       .  S
C273        H275   1.086       .  S
C273        C274   1.344       .  D
C274        H276   1.087       .  S
C277        H279   1.087       .  S
C277        C278   1.346       .  D
C278        H280   1.086       .  S
C281        H283   1.086       .  S
C281        C282   1.350       .  D
C282        H284   1.086       .  S
C285        H287   1.086       .  S
C285        C286   1.349       .  D
C286        H288   1.087       .  S
C289        C290   1.402       .  A
C289        C294   1.396       .  A
C289        H295   1.083       .  S
C290        C291   1.396       .  A
C291        C292   1.395       .  A
C291        H296   1.083       .  S
C292        C293   1.409       .  A
C292        H297   1.083       .  S
C293        C294   1.403       .  A
C294        H298   1.083       .  S
C299        C300   1.401       .  A
C299        C304   1.392       .  A
C299        H305   1.083       .  S
C300        C301   1.408       .  A
C301        C302   1.402       .  A
C301        H306   1.081       .  S
C302        C303   1.404       .  A
C302        H307   1.083       .  S
C303        C304   1.406       .  A
C304        H308   1.083       .  S
C309        C310   1.407       .  A
C309        C314   1.394       .  A
C309        H315   1.078       .  S
C310        C311   1.412       .  A
C311        C312   1.390       .  A
C311        H316   1.084       .  S
C312        C313   1.395       .  A
C312        H317   1.084       .  S
C313        C314   1.401       .  A
C314        H318   1.084       .  S
C319        C320   1.410       .  A
C319        C324   1.391       .  A
C319        H325   1.084       .  S
C320        C321   1.399       .  A
C321        C322   1.401       .  A
C321        H326   1.083       .  S
C322        C323   1.410       .  A
C322        H327   1.083       .  S
C323        C324   1.397       .  A
C324        H328   1.084       .  S
C329        C330   1.534       .  S
C329        C335   1.519       .  S
C329        C333   1.542       .  S
C329        C638   1.514       .  S
C330        H337   1.086       .  S
C330        C331   1.372       .  D
C331        C332   1.540       .  S
C331        C628   1.481       .  S
C332        C336   1.541       .  S
C332        C334   1.533       .  S
C332        H338   1.110       .  S
C333        H339   1.083       .  S
C333        C334   1.366       .  D
C334        C618   1.463       .  S
C335        H340   1.088       .  S
C335        C336   1.351       .  D
C336        C648   1.473       .  S
O341        C343   1.294       .  A
O342        C343   1.286       .  A
O342       Zr379   2.425       .  S
C343        C606   1.484       .  S
O344        C346   1.279       .  A
O344       Zr356   2.401       .  S
O345        C346   1.288       .  A
O345       Zr380   2.432       .  S
C346        C641   1.456       .  S
O347        C349   1.280       .  A
O348        C349   1.291       .  A
O348       Zr379   2.445       .  S
C349        C651   1.466       .  S
O350        C352   1.293       .  A
O350       Zr353   2.468       .  S
O351        C352   1.287       .  A
O351       Zr380   2.424       .  S
C352        C609   1.484       .  S
Zr353       O354   2.435   1_565  S
Zr353       O355   2.436       .  S
Zr353       O360   2.374       .  S
Zr353       O383   2.377       .  S
O355        H400   0.990   1_565  S
Zr356       O358   2.434   1_565  S
Zr356       O360   2.364       .  S
Zr356       O386   2.367       .  S
O359       Zr379   2.377       .  S
O360       Zr380   2.386       .  S
O360        H387   0.966       .  S
O361        C363   1.281       .  A
O361       Zr373   2.415       .  S
O362        C363   1.288       .  A
O362       Zr380   2.427       .  S
C363        C582   1.465       .  S
O364        C366   1.293       .  A
O365        C366   1.288       .  A
O365       Zr379   2.426       .  S
C366        C613   1.483       .  S
O367        C369   1.295       .  A
O367       Zr376   2.477       .  S
O368        C369   1.287       .  A
O368       Zr380   2.426       .  S
C369        C601   1.488       .  S
O370        C372   1.279       .  A
O371        C372   1.289       .  A
O371       Zr379   2.439       .  S
C372        C592   1.459       .  S
Zr373       O374   2.436       .  S
Zr373       O375   2.434       .  S
Zr373       O381   2.365       .  S
Zr373       O383   2.365       .  S
O374        H394   0.990       .  S
O374        H399   0.990       .  S
O375        H395   0.990       .  S
Zr376       O377   2.435       .  S
Zr376       O378   2.435       .  S
Zr376       O381   2.373       .  S
Zr376       O386   2.372       .  S
O378        H392   0.990       .  S
O378        H402   0.990       .  S
Zr379       O382   2.383       .  S
Zr379       O384   2.388       .  S
Zr379       O385   2.383       .  S
Zr380       O381   2.381       .  S
Zr380       O383   2.382       .  S
Zr380       O386   2.383       .  S
O381        H389   0.965       .  S
O384        H388   0.966       .  S
O385        H390   0.966       .  S
N403        H435   1.042       .  S
N403       C1064   1.354   1_455  A
N403        C407   1.356       .  A
N404        C411   1.355       .  A
N404        C412   1.356       .  A
N405        H436   1.042       .  S
N405       C1066   1.356   1_455  A
N405        C409   1.353       .  A
N406        C413   1.356       .  A
N406        C414   1.354       .  A
C407        C415   1.388       .  A
C407        C423   1.420       .  A
C408       N1059   1.355       .  A
C408        C424   1.416       .  A
C408        C416   1.386       .  A
C409        C417   1.386       .  A
C409        C426   1.414       .  A
C410       N1061   1.356       .  A
C410        C425   1.422       .  A
C410        C418   1.389       .  A
C411        C423   1.418       .  A
C411        C419   1.386       .  A
C412        C426   1.422       .  A
C412        C420   1.387       .  A
C413        C421   1.387       .  A
C413        C424   1.421       .  A
C414        C422   1.387       .  A
C414        C425   1.419       .  A
C415       C1072   1.376   1_455  A
C415        H427   1.082       .  S
C416       C1071   1.376       .  A
C416        H428   1.082       .  S
C417       C1074   1.377   1_455  A
C417        H429   1.083       .  S
C418       C1073   1.376       .  A
C418        H430   1.082       .  S
C419        C420   1.376       .  A
C419        H431   1.082       .  S
C420        H432   1.081       .  S
C421        C422   1.378       .  A
C421        H433   1.082       .  S
C422        H434   1.082       .  S
C423        C610   1.504       .  S
C424        C602   1.506       .  S
C425        C614   1.505       .  S
C426        C605   1.501       .  S
C437        C438   1.543       .  S
C437        C443   1.521       .  S
C437        C441   1.536       .  S
C437        C595   1.517       .  S
C438        H445   1.082       .  S
C438        C439   1.371       .  D
C439        C440   1.538       .  S
C439        C572   1.479       .  S
C440        C444   1.539       .  S
C440        C442   1.531       .  S
C440        H446   1.111       .  S
C441        H447   1.086       .  S
C441        C442   1.368       .  D
C442        C562   1.463       .  S
C443        H448   1.088       .  S
C443        C444   1.353       .  D
C444        C585   1.476       .  S
N449        H481   1.040   1_554  S
N449        C454   1.357       .  A
N449        C453   1.358       .  A
N450        C457   1.356   1_554  A
N451        H482   1.041   1_554  S
N451        C456   1.360       .  A
N451        C455   1.361       .  A
N452        C459   1.354   1_545  A
C453        C461   1.389       .  A
C453        C469   1.424   1_554  A
C454        C470   1.423       .  A
C454        C462   1.385       .  A
C455        C463   1.388       .  A
C455        C472   1.432       .  A
C456        C471   1.429       .  A
C456        C464   1.386       .  A
C457        C469   1.420       .  A
C457        C465   1.387       .  A
C458        C472   1.422   1_556  A
C458        C466   1.386       .  A
C459        C467   1.387       .  A
C459        C470   1.418       .  A
C460        C468   1.388       .  A
C460        C471   1.411   1_556  A
C461        C462   1.371       .  A
C461        H473   1.078       .  S
C462        H474   1.081       .  S
C463        C464   1.382       .  A
C463        H475   1.081       .  S
C464        H476   1.082       .  S
C465        H477   1.082       .  S
C466        H478   1.082       .  S
C467        H479   1.082       .  S
C468        H480   1.083       .  S
C469        C549   1.500       .  S
C470        C553   1.502       .  S
C471        C545   1.500       .  S
C472        C557   1.519       .  S
O483        C485   1.282       .  A
O483       Zr495   2.404       .  S
O484        C485   1.291       .  A
O484       Zr521   2.450       .  S
C485        C631   1.476       .  S
O486        C488   1.289       .  A
O486      Zr1154   2.450       .  S
O487        C488   1.287   1_556  A
O487       Zr522   2.430       .  S
C488        C554   1.478   1_554  S
O489        C491   1.287       .  A
O489       Zr498   2.442       .  S
O490        C491   1.291       .  A
O490       Zr521   2.448   1_554  S
C491        C550   1.474       .  S
O492        C494   1.282       .  A
O492      Zr1151   2.410       .  S
O493        C494   1.288       .  A
O493       Zr522   2.433       .  S
C494        C621   1.471       .  S
Zr495      O1148   2.431   1_455  S
Zr495       O496   2.435   1_455  S
Zr495      O1153   2.434       .  S
Zr495       O501   2.374       .  S
Zr495      O1158   2.362   1_455  S
Zr495      O1181   2.363   1_455  S
Zr495       O527   2.369       .  S
O496        H539   0.990       .  S
O497      Zr1151   2.437       .  S
O497       H1194   0.990       .  S
O497       H1198   0.990       .  S
Zr498      O1142   2.443   1_455  S
Zr498       O499   2.436   1_554  S
Zr498       O500   2.436       .  S
Zr498      O1158   2.373   1_454  S
Zr498       O501   2.373   1_554  S
Zr498       O526   2.374       .  S
Zr498      O1184   2.374   1_455  S
O499       H1196   0.990   1_455  S
O499        H543   0.990       .  S
O500        H533   0.990   1_455  S
O501       Zr521   2.384       .  S
O502      Zr1151   2.365       .  S
O502      Zr1154   2.366   1_556  S
O502       Zr522   2.373       .  S
O502        H529   0.966       .  S
O503        C505   1.300       .  A
O503      Zr1171   2.501       .  S
O504        C505   1.281       .  A
O504       Zr522   2.398       .  S
C505        C546   1.483       .  S
O506        C508   1.284       .  A
O506       Zr518   2.416       .  S
O507        C508   1.290       .  A
O507       Zr521   2.442   1_554  S
C508        C575   1.478       .  S
O509        C511   1.283       .  A
O509      Zr1174   2.413       .  S
O510        C511   1.288       .  A
O510       Zr522   2.433   1_554  S
C511        C565   1.466       .  S
O512        C514   1.298       .  A
O512       Zr515   2.494       .  S
O513        C514   1.290       .  A
O513       Zr521   2.440       .  S
C514        C558   1.501       .  S
Zr515      O1159   2.492   1_455  S
Zr515       O516   2.434   1_556  S
Zr515       O517   2.436       .  S
Zr515      O1179   2.381   1_456  S
Zr515       O524   2.377   1_556  S
Zr515       O527   2.384       .  S
Zr515      O1181   2.381   1_455  S
O516       H1192   0.990   1_455  S
O516        H541   0.990       .  S
O517       H1193   0.990       .  S
Zr518      O1165   2.427   1_455  S
Zr518       O519   2.432       .  S
Zr518       O520   2.437       .  S
Zr518       O524   2.373       .  S
Zr518      O1179   2.366   1_455  S
Zr518      O1184   2.363   1_455  S
Zr518       O526   2.360       .  S
O519        H535   0.990       .  S
O520       H1190   0.990   1_455  S
O520        H544   0.990       .  S
Zr521       O524   2.388   1_556  S
Zr521       O526   2.391   1_556  S
Zr521       O527   2.393       .  S
Zr522       O523   2.391   1_556  S
Zr522       O525   2.386       .  S
Zr522       O528   2.378   1_556  S
O523      Zr1171   2.373   1_554  S
O523      Zr1174   2.365       .  S
O523        H531   0.966       .  S
O525      Zr1151   2.366       .  S
O525      Zr1171   2.376       .  S
O526        H530   0.966       .  S
O527        H532   0.964       .  S
O528      Zr1154   2.365       .  S
O528      Zr1174   2.366       .  S
H534       O1176   0.990       .  S
H536       O1172   0.990       .  S
H537       O1173   0.990       .  S
H538       O1153   0.990   1_655  S
H540       O1155   0.990       .  S
H542       O1153   0.990   1_655  S
C545        H547   1.087       .  S
C545        C546   1.339   1_554  D
C546        H548   1.087       .  S
C549        H551   1.087       .  S
C549        C550   1.344   1_556  D
C550        H552   1.085       .  S
C553        H555   1.087       .  S
C553        C554   1.347   1_554  D
C554        H556   1.086       .  S
C557        H559   1.087       .  S
C557        C558   1.352   1_554  D
C558        H560   1.085       .  S
C561        C562   1.396       .  A
C561        C566   1.394       .  A
C561        H567   1.083       .  S
C562        C563   1.402       .  A
C563        C564   1.395       .  A
C563        H568   1.084       .  S
C564        C565   1.402       .  A
C564        H569   1.083       .  S
C565        C566   1.407       .  A
C566        H570   1.083       .  S
C571        C572   1.407       .  A
C571        C576   1.401       .  A
C571        H577   1.082       .  S
C572        C573   1.400       .  A
C573        C574   1.392       .  A
C573        H578   1.083       .  S
C574        C575   1.408       .  A
C574        H579   1.083       .  S
C575        C576   1.404       .  A
C576        H580   1.083       .  S
C581        C582   1.398       .  A
C581        C586   1.387       .  A
C581        H587   1.084       .  S
C582        C583   1.407       .  A
C583        C584   1.401       .  A
C583        H588   1.083       .  S
C584        C585   1.401       .  A
C584        H589   1.083       .  S
C585        C586   1.407       .  A
C586        H590   1.083       .  S
C591        C592   1.402       .  A
C591        C596   1.392       .  A
C591        H597   1.084       .  S
C592        C593   1.395       .  A
C593        C594   1.394       .  A
C593        H598   1.083       .  S
C594        C595   1.413       .  A
C594        H599   1.083       .  S
C595        C596   1.406       .  A
C596        H600   1.077       .  S
C601        H603   1.085       .  S
C601        C602   1.347       .  D
C602        H604   1.087       .  S
C605        H607   1.087       .  S
C605        C606   1.345       .  D
C606        H608   1.086       .  S
C609        H611   1.085       .  S
C609        C610   1.352       .  D
C610        H612   1.087       .  S
C613        H615   1.085       .  S
C613        C614   1.352       .  D
C614        H616   1.087       .  S
C617        C618   1.402       .  A
C617        C622   1.395       .  A
C617        H623   1.083       .  S
C618        C619   1.396       .  A
C619        C620   1.395       .  A
C619        H624   1.083       .  S
C620        C621   1.409       .  A
C620        H625   1.083       .  S
C621        C622   1.403       .  A
C622        H626   1.083       .  S
C627        C628   1.400       .  A
C627        C632   1.391       .  A
C627        H633   1.083       .  S
C628        C629   1.409       .  A
C629        C630   1.401       .  A
C629        H634   1.081       .  S
C630        C631   1.402       .  A
C630        H635   1.083       .  S
C631        C632   1.408       .  A
C632        H636   1.083       .  S
C637        C638   1.406       .  A
C637        C642   1.394       .  A
C637        H643   1.078       .  S
C638        C639   1.412       .  A
C639        C640   1.390       .  A
C639        H644   1.084       .  S
C640        C641   1.395       .  A
C640        H645   1.084       .  S
C641        C642   1.402       .  A
C642        H646   1.084       .  S
C647        C648   1.409       .  A
C647        C652   1.391       .  A
C647        H653   1.084       .  S
C648        C649   1.398       .  A
C649        C650   1.398       .  A
C649        H654   1.083       .  S
C650        C651   1.408       .  A
C650        H655   1.083       .  S
C651        C652   1.398       .  A
C652        H656   1.084       .  S
C657        C658   1.533       .  S
C657        C663   1.521       .  S
C657        C661   1.541       .  S
C657        C966   1.511       .  S
C658        H665   1.086       .  S
C658        C659   1.369       .  D
C659        C660   1.539       .  S
C659        C956   1.476       .  S
C660        C664   1.542       .  S
C660        C662   1.533       .  S
C660        H666   1.111       .  S
C661        H667   1.083       .  S
C661        C662   1.366       .  D
C662        C946   1.462       .  S
C663        H668   1.087       .  S
C663        C664   1.353       .  D
C664        C976   1.480       .  S
O669        C671   1.296       .  A
O669      Zr1009   2.480   1_545  S
O670        C671   1.288       .  A
O670       Zr707   2.429       .  S
C671        C934   1.491       .  S
O672        C674   1.277       .  A
O672       Zr684   2.389       .  S
O673        C674   1.289       .  A
O673       Zr708   2.436       .  S
C674        C969   1.453       .  S
O675        C677   1.281       .  A
O675      Zr1012   2.409   1_545  S
O676        C677   1.290       .  A
O676       Zr707   2.436       .  S
C677        C979   1.470       .  S
O678        C680   1.296       .  A
O678       Zr681   2.480       .  S
O679        C680   1.284       .  A
O679       Zr708   2.410       .  S
C680        C937   1.479       .  S
Zr681       O997   2.478       .  S
Zr681       O682   2.436       .  S
Zr681       O683   2.434       .  S
Zr681      O1015   2.375       .  S
Zr681       O688   2.371       .  S
Zr681       O711   2.372       .  S
Zr681      O1041   2.373       .  S
O682       H1053   0.990       .  S
O683       H1052   0.990       .  S
O683        H728   0.990       .  S
Zr684      O1003   2.402       .  S
Zr684      O1013   2.438       .  S
Zr684       O686   2.434       .  S
Zr684       O688   2.370       .  S
Zr684      O1015   2.365       .  S
Zr684      O1040   2.359       .  S
Zr684       O714   2.370       .  S
O685      Zr1012   2.437   1_545  S
O685       H1054   0.990   1_545  S
O685       H1057   0.990       .  S
O686       H1047   0.990       .  S
O687      Zr1009   2.370   1_545  S
O687      Zr1012   2.366   1_545  S
O687       Zr707   2.381       .  S
O688       Zr708   2.384       .  S
O688        H715   0.966       .  S
O689        C691   1.281       .  A
O689       Zr701   2.410       .  S
O690        C691   1.290       .  A
O690       Zr708   2.437       .  S
C691        C910   1.468       .  S
O692        C694   1.294       .  A
O692      Zr1032   2.469   1_545  S
O693        C694   1.289       .  A
O693       Zr707   2.433       .  S
C694        C941   1.487       .  S
O695        C697   1.296       .  A
O695       Zr704   2.478       .  S
O696        C697   1.284       .  A
O696       Zr708   2.415       .  S
C697        C929   1.482       .  S
O698        C700   1.277       .  A
O698      Zr1029   2.389   1_545  S
O699        C700   1.289       .  A
O699       Zr707   2.439       .  S
C700        C920   1.457       .  S
Zr701      O1026   2.399       .  S
Zr701       O702   2.436       .  S
Zr701       O703   2.434       .  S
Zr701       O709   2.360       .  S
Zr701      O1038   2.371       .  S
Zr701      O1041   2.364       .  S
Zr701       O711   2.364       .  S
O702        H722   0.990       .  S
O702        H727   0.990       .  S
O703        H723   0.990       .  S
Zr704      O1020   2.458       .  S
Zr704       O705   2.435       .  S
Zr704       O706   2.435       .  S
Zr704      O1038   2.381       .  S
Zr704       O709   2.370       .  S
Zr704       O714   2.373       .  S
Zr704      O1040   2.379       .  S
O705       H1049   0.990       .  S
O706        H720   0.990       .  S
O706        H730   0.990       .  S
Zr707       O710   2.380       .  S
Zr707       O712   2.386       .  S
Zr707       O713   2.387       .  S
Zr708       O709   2.377       .  S
Zr708       O711   2.378       .  S
Zr708       O714   2.381       .  S
O709        H717   0.964       .  S
O710      Zr1029   2.376   1_545  S
O710      Zr1032   2.378   1_545  S
O712      Zr1012   2.359   1_545  S
O712      Zr1032   2.372   1_545  S
O712        H716   0.967       .  S
O713      Zr1009   2.374   1_545  S
O713      Zr1029   2.364   1_545  S
O713        H718   0.965       .  S
H719       O1014   0.990       .  S
H721       O1033   0.990       .  S
H724       O1011   0.990   1_545  S
H725       O1010   0.990       .  S
H726       O1013   0.990       .  S
H729       O1013   0.990       .  S
N731        H763   1.034       .  S
N731        C735   1.358       .  A
N732        C739   1.357       .  A
N732        C740   1.358       .  A
N733        H764   1.041       .  S
N733        C737   1.356       .  A
N734        C741   1.354       .  A
N734        C742   1.353       .  A
C735        C743   1.391       .  A
C735        C751   1.429       .  A
C736        C752   1.412       .  A
C736        C744   1.386       .  A
C737        C745   1.386       .  A
C737        C754   1.418       .  A
C738        C753   1.421       .  A
C738        C746   1.388       .  A
C739        C751   1.427       .  A
C739        C747   1.388       .  A
C740        C754   1.426       .  A
C740        C748   1.386       .  A
C741        C749   1.388       .  A
C741        C752   1.420       .  A
C742        C750   1.386       .  A
C742        C753   1.417       .  A
C743        H755   1.079       .  S
C744        H756   1.082       .  S
C745        H757   1.083       .  S
C746        H758   1.081       .  S
C747        C748   1.375       .  A
C747        H759   1.081       .  S
C748        H760   1.081       .  S
C749        C750   1.378       .  A
C749        H761   1.081       .  S
C750        H762   1.082       .  S
C751        C938   1.506       .  S
C752        C930   1.501       .  S
C753        C942   1.507       .  S
C754        C933   1.509       .  S
C765        C766   1.540       .  S
C765        C771   1.517       .  S
C765        C769   1.535       .  S
C765        C923   1.513       .  S
C766        H773   1.083       .  S
C766        C767   1.373       .  D
C767        C768   1.540       .  S
C767        C900   1.477       .  S
C768        C772   1.542       .  S
C768        C770   1.532       .  S
C768        H774   1.111       .  S
C769        H775   1.086       .  S
C769        C770   1.366       .  D
C770        C890   1.463       .  S
C771        H776   1.088       .  S
C771        C772   1.353       .  D
C772        C913   1.479       .  S
N777        H809   1.041       .  S
N777        C782   1.360   1_554  A
N777        C781   1.358   1_554  A
N778        C785   1.358       .  A
N778       C1114   1.358       .  A
N779        H810   1.042   1_554  S
N779        C784   1.356       .  A
N779        C783   1.355       .  A
N780        C787   1.356       .  A
N780       C1116   1.356       .  A
C781        C789   1.388       .  A
C781        C797   1.425       .  A
C782        C798   1.423       .  A
C782        C790   1.386       .  A
C783        C791   1.387       .  A
C783        C800   1.421       .  A
C784        C799   1.417       .  A
C784        C792   1.387       .  A
C785        C797   1.422   1_554  A
C785        C793   1.386       .  A
C786       N1106   1.353   1_546  A
C786        C800   1.416   1_556  A
C786        C794   1.386       .  A
C787        C795   1.386       .  A
C787        C798   1.419   1_554  A
C788       N1108   1.355   1_545  A
C788        C796   1.388       .  A
C788        C799   1.421       .  A
C789        C790   1.375       .  A
C789        H801   1.082       .  S
C790        H802   1.082       .  S
C791        C792   1.377       .  A
C791        H803   1.082       .  S
C792        H804   1.082       .  S
C793       C1122   1.368       .  A
C793        H805   1.082       .  S
C794       C1121   1.377   1_545  A
C794        H806   1.082       .  S
C795       C1124   1.366       .  A
C795        H807   1.082       .  S
C796       C1123   1.373   1_545  A
C796        H808   1.080       .  S
C797        C877   1.508       .  S
C798        C881   1.508       .  S
C799        C873   1.500       .  S
C800        C885   1.503       .  S
O811        C813   1.280       .  A
O811       Zr823   2.394       .  S
O812        C813   1.292       .  A
O812       Zr849   2.450       .  S
C813        C959   1.475       .  S
O814        C816   1.293   1_556  A
O815        C816   1.289       .  A
O815       Zr850   2.440   1_554  S
C816        C882   1.491       .  S
O817        C819   1.295       .  A
O817       Zr826   2.473       .  S
O818        C819   1.286   1_554  A
O818       Zr849   2.422   1_554  S
C819        C878   1.485   1_556  S
O820        C822   1.285       .  A
O821        C822   1.288       .  A
O821       Zr850   2.429       .  S
C822        C949   1.468       .  S
Zr823       O824   2.435       .  S
Zr823       O829   2.372       .  S
Zr823       O855   2.367       .  S
O824        H867   0.990       .  S
Zr826       O827   2.434       .  S
Zr826       O828   2.436   1_556  S
Zr826       O829   2.373       .  S
Zr826       O854   2.370   1_556  S
O827        H871   0.990       .  S
O828        H861   0.990       .  S
O829       Zr849   2.386       .  S
O830       Zr850   2.387       .  S
O830        H857   0.965       .  S
O831        C833   1.288       .  A
O832        C833   1.289       .  A
O832       Zr850   2.440       .  S
C833        C874   1.476       .  S
O834        C836   1.281       .  A
O834       Zr846   2.397       .  S
O835        C836   1.291       .  A
O835       Zr849   2.452   1_554  S
C836        C903   1.477       .  S
O837        C839   1.283       .  A
O838        C839   1.288       .  A
O838       Zr850   2.430   1_554  S
C839        C893   1.471       .  S
O840        C842   1.291       .  A
O840       Zr843   2.460       .  S
O841        C842   1.288       .  A
O841       Zr849   2.431       .  S
C842        C886   1.485       .  S
Zr843       O844   2.433   1_556  S
Zr843       O845   2.435       .  S
Zr843       O852   2.368   1_556  S
Zr843       O855   2.369       .  S
O844        H869   0.990       .  S
Zr846       O847   2.435       .  S
Zr846       O848   2.435       .  S
Zr846       O852   2.372       .  S
Zr846       O854   2.362       .  S
O847        H863   0.990       .  S
O848        H872   0.990       .  S
Zr849       O852   2.381   1_556  S
Zr849       O854   2.391   1_556  S
Zr849       O855   2.389       .  S
Zr850       O851   2.386   1_556  S
Zr850       O853   2.390       .  S
Zr850       O856   2.383   1_556  S
O851        H859   0.966       .  S
O854        H858   0.965       .  S
O855        H860   0.963       .  S
C873        H875   1.086       .  S
C873        C874   1.346   1_554  D
C874        H876   1.086       .  S
C877        H879   1.086       .  S
C877        C878   1.347   1_556  D
C878        H880   1.086       .  S
C881        H883   1.086       .  S
C881        C882   1.349   1_556  D
C882        H884   1.086       .  S
C885        H887   1.087       .  S
C885        C886   1.350   1_554  D
C886        H888   1.086       .  S
C889        C890   1.396       .  A
C889        C894   1.395       .  A
C889        H895   1.083       .  S
C890        C891   1.402       .  A
C891        C892   1.395       .  A
C891        H896   1.084       .  S
C892        C893   1.402       .  A
C892        H897   1.083       .  S
C893        C894   1.409       .  A
C894        H898   1.083       .  S
C899        C900   1.408       .  A
C899        C904   1.403       .  A
C899        H905   1.082       .  S
C900        C901   1.397       .  A
C901        C902   1.387       .  A
C901        H906   1.083       .  S
C902        C903   1.408       .  A
C902        H907   1.083       .  S
C903        C904   1.403       .  A
C904        H908   1.083       .  S
C909        C910   1.396       .  A
C909        C914   1.386       .  A
C909        H915   1.084       .  S
C910        C911   1.410       .  A
C911        C912   1.402       .  A
C911        H916   1.083       .  S
C912        C913   1.400       .  A
C912        H917   1.083       .  S
C913        C914   1.409       .  A
C914        H918   1.083       .  S
C919        C920   1.404       .  A
C919        C924   1.393       .  A
C919        H925   1.084       .  S
C920        C921   1.394       .  A
C921        C922   1.391       .  A
C921        H926   1.083       .  S
C922        C923   1.413       .  A
C922        H927   1.083       .  S
C923        C924   1.405       .  A
C924        H928   1.078       .  S
C929        H931   1.085       .  S
C929        C930   1.344       .  D
C930        H932   1.087       .  S
C933        H935   1.087       .  S
C933        C934   1.349       .  D
C934        H936   1.086       .  S
C937        H939   1.086       .  S
C937        C938   1.352       .  D
C938        H940   1.086       .  S
C941        H943   1.085       .  S
C941        C942   1.352       .  D
C942        H944   1.087       .  S
C945        C946   1.401       .  A
C945        C950   1.395       .  A
C945        H951   1.084       .  S
C946        C947   1.396       .  A
C947        C948   1.394       .  A
C947        H952   1.083       .  S
C948        C949   1.407       .  A
C948        H953   1.083       .  S
C949        C950   1.403       .  A
C950        H954   1.083       .  S
C955        C956   1.398       .  A
C955        C960   1.390       .  A
C955        H961   1.083       .  S
C956        C957   1.407       .  A
C957        C958   1.399       .  A
C957        H962   1.081       .  S
C958        C959   1.402       .  A
C958        H963   1.083       .  S
C959        C960   1.409       .  A
C960        H964   1.083       .  S
C965        C966   1.406       .  A
C965        C970   1.393       .  A
C965        H971   1.078       .  S
C966        C967   1.411       .  A
C967        C968   1.389       .  A
C967        H972   1.083       .  S
C968        C969   1.394       .  A
C968        H973   1.084       .  S
C969        C970   1.402       .  A
C970        H974   1.084       .  S
C975        C976   1.409       .  A
C975        C980   1.388       .  A
C975        H981   1.083       .  S
C976        C977   1.401       .  A
C977        C978   1.402       .  A
C977        H982   1.083       .  S
C978        C979   1.409       .  A
C978        H983   1.083       .  S
C979        C980   1.397       .  A
C980        H984   1.084       .  S
C985        C986   1.531       .  S
C985        C991   1.517       .  S
C985        C989   1.543       .  S
C985       C1294   1.513       .  S
C986        H993   1.086       .  S
C986        C987   1.370       .  D
C987        C988   1.547       .  S
C987       C1284   1.485       .  S
C988        C992   1.550       .  S
C988        C990   1.539       .  S
C988        H994   1.110       .  S
C989        H995   1.083       .  S
C989        C990   1.369       .  D
C990       C1274   1.472       .  S
C991        H996   1.088       .  S
C991        C992   1.351       .  D
C992       C1304   1.481       .  S
O997        C999   1.296       .  A
O998        C999   1.287       .  A
O998      Zr1035   2.422       .  S
C999       C1262   1.487       .  S
O1000      C1002   1.279       .  A
O1000     Zr1012   2.399       .  S
O1001      C1002   1.289       .  A
O1001     Zr1036   2.436       .  S
C1002      C1297   1.455       .  S
O1003      C1005   1.280       .  A
O1004      C1005   1.293       .  A
O1004     Zr1035   2.455       .  S
C1005      C1307   1.471       .  S
O1006      C1008   1.293       .  A
O1006     Zr1009   2.464       .  S
O1007      C1008   1.288       .  A
O1007     Zr1036   2.427       .  S
C1008      C1265   1.484       .  S
Zr1009     O1010   2.435   1_565  S
Zr1009     O1011   2.436       .  S
Zr1009     O1016   2.375       .  S
Zr1009     O1039   2.381       .  S
O1011      H1056   0.990   1_565  S
Zr1012     O1014   2.433       .  S
Zr1012     O1016   2.367       .  S
Zr1012     O1042   2.369       .  S
O1015     Zr1035   2.381       .  S
O1016     Zr1036   2.390       .  S
O1016      H1043   0.966       .  S
O1017      C1019   1.280       .  A
O1017     Zr1029   2.410       .  S
O1018      C1019   1.291       .  A
O1018     Zr1036   2.447       .  S
C1019      C1238   1.471       .  S
O1020      C1022   1.291       .  A
O1021      C1022   1.290       .  A
O1021     Zr1035   2.434       .  S
C1022      C1269   1.484       .  S
O1023      C1025   1.293       .  A
O1023     Zr1032   2.466       .  S
O1024      C1025   1.287       .  A
O1024     Zr1036   2.428       .  S
C1025      C1257   1.483       .  S
O1026      C1028   1.279       .  A
O1027      C1028   1.291       .  A
O1027     Zr1035   2.448       .  S
C1028      C1248   1.462       .  S
Zr1029     O1030   2.434       .  S
Zr1029     O1031   2.437       .  S
Zr1029     O1037   2.362       .  S
Zr1029     O1039   2.364       .  S
O1030      H1050   0.990       .  S
O1030      H1055   0.990       .  S
O1031      H1051   0.990   1_565  S
Zr1032     O1033   2.434       .  S
Zr1032     O1034   2.437       .  S
Zr1032     O1037   2.378       .  S
Zr1032     O1042   2.372       .  S
O1034      H1048   0.990       .  S
O1034      H1058   0.990       .  S
Zr1035     O1038   2.384       .  S
Zr1035     O1040   2.387       .  S
Zr1035     O1041   2.388       .  S
Zr1036     O1037   2.378       .  S
Zr1036     O1039   2.382       .  S
Zr1036     O1042   2.386       .  S
O1037      H1045   0.965       .  S
O1040      H1044   0.966       .  S
O1041      H1046   0.965       .  S
N1059      H1091   1.043       .  S
N1059      C1063   1.356       .  A
N1060      C1067   1.354       .  A
N1060      C1068   1.356       .  A
N1061      H1092   1.042       .  S
N1061      C1065   1.355       .  A
N1062      C1069   1.355       .  A
N1062      C1070   1.354       .  A
C1063      C1071   1.387       .  A
C1063      C1079   1.420       .  A
C1064      C1080   1.414       .  A
C1064      C1072   1.386       .  A
C1065      C1073   1.385       .  A
C1065      C1082   1.415       .  A
C1066      C1081   1.420       .  A
C1066      C1074   1.388       .  A
C1067      C1079   1.416       .  A
C1067      C1075   1.386       .  A
C1068      C1082   1.421       .  A
C1068      C1076   1.387       .  A
C1069      C1077   1.387       .  A
C1069      C1080   1.420       .  A
C1070      C1078   1.384       .  A
C1070      C1081   1.415       .  A
C1071      H1083   1.082       .  S
C1072      H1084   1.082       .  S
C1073      H1085   1.082       .  S
C1074      H1086   1.082       .  S
C1075      C1076   1.377       .  A
C1075      H1087   1.082       .  S
C1076      H1088   1.081       .  S
C1077      C1078   1.375       .  A
C1077      H1089   1.081       .  S
C1078      H1090   1.082       .  S
C1079      C1266   1.505       .  S
C1080      C1258   1.503       .  S
C1081      C1270   1.503       .  S
C1082      C1261   1.505       .  S
C1093      C1094   1.543       .  S
C1093      C1099   1.520       .  S
C1093      C1097   1.536       .  S
C1093      C1251   1.519       .  S
C1094      H1101   1.082       .  S
C1094      C1095   1.373       .  D
C1095      C1096   1.541       .  S
C1095      C1228   1.484       .  S
C1096      C1100   1.543       .  S
C1096      C1098   1.537       .  S
C1096      H1102   1.110       .  S
C1097      H1103   1.086       .  S
C1097      C1098   1.367       .  D
C1098      C1218   1.470       .  S
C1099      H1104   1.088       .  S
C1099      C1100   1.354       .  D
C1100      C1241   1.481       .  S
N1105      H1137   1.042   1_554  S
N1105      C1110   1.353       .  A
N1105      C1109   1.354       .  A
N1106      C1113   1.354   1_554  A
N1107      H1138   1.036   1_554  S
N1107      C1112   1.362       .  A
N1107      C1111   1.362       .  A
N1108      C1115   1.354       .  A
C1109      C1117   1.384       .  A
C1109      C1125   1.409   1_554  A
C1110      C1126   1.417       .  A
C1110      C1118   1.389       .  A
C1111      C1119   1.389       .  A
C1111      C1128   1.435       .  A
C1112      C1127   1.431       .  A
C1112      C1120   1.387       .  A
C1113      C1125   1.418       .  A
C1113      C1121   1.386       .  A
C1114      C1128   1.428       .  A
C1114      C1122   1.390       .  A
C1115      C1123   1.386       .  A
C1115      C1126   1.417       .  A
C1116      C1124   1.388       .  A
C1116      C1127   1.421       .  A
C1117      C1118   1.374       .  A
C1117      H1129   1.082       .  S
C1118      H1130   1.082       .  S
C1119      C1120   1.377       .  A
C1119      H1131   1.081       .  S
C1120      H1132   1.082       .  S
C1121      H1133   1.082       .  S
C1122      H1134   1.081       .  S
C1123      H1135   1.081       .  S
C1124      H1136   1.081       .  S
C1125      C1205   1.500       .  S
C1126      C1209   1.499       .  S
C1127      C1201   1.506       .  S
C1128      C1213   1.513       .  S
O1139      C1141   1.283       .  A
O1139     Zr1151   2.411       .  S
O1140      C1141   1.292       .  A
O1140     Zr1177   2.455       .  S
C1141      C1287   1.481       .  S
O1142      C1144   1.288       .  A
O1143      C1144   1.287   1_556  A
O1143     Zr1178   2.429       .  S
C1144      C1210   1.474   1_554  S
O1145      C1147   1.285       .  A
O1145     Zr1154   2.426       .  S
O1146      C1147   1.294       .  A
O1146     Zr1177   2.461   1_554  S
C1147      C1206   1.480       .  S
O1148      C1150   1.286       .  A
O1149      C1150   1.288       .  A
O1149     Zr1178   2.434       .  S
C1150      C1277   1.480       .  S
Zr1151     O1152   2.433       .  S
Zr1151     O1157   2.371       .  S
Zr1151     O1183   2.365       .  S
O1152      H1195   0.990       .  S
Zr1154     O1155   2.435   1_554  S
Zr1154     O1156   2.434       .  S
Zr1154     O1157   2.380   1_554  S
Zr1154     O1182   2.376       .  S
O1155      H1199   0.990       .  S
O1156      H1189   0.990       .  S
O1157     Zr1177   2.383       .  S
O1158     Zr1178   2.380       .  S
O1158      H1185   0.967       .  S
O1159      C1161   1.298       .  A
O1160      C1161   1.284       .  A
O1160     Zr1178   2.412       .  S
C1161      C1202   1.484       .  S
O1162      C1164   1.283       .  A
O1162     Zr1174   2.408       .  S
O1163      C1164   1.292       .  A
O1163     Zr1177   2.453   1_554  S
C1164      C1231   1.479       .  S
O1165      C1167   1.285       .  A
O1166      C1167   1.288       .  A
O1166     Zr1178   2.434   1_554  S
C1167      C1221   1.478       .  S
O1168      C1170   1.297   1_554  A
O1168     Zr1171   2.483   1_554  S
O1169      C1170   1.288       .  A
O1169     Zr1177   2.431       .  S
C1170      C1214   1.490       .  S
Zr1171     O1172   2.436   1_556  S
Zr1171     O1173   2.437       .  S
Zr1171     O1180   2.376   1_556  S
Zr1171     O1183   2.386       .  S
O1172      H1197   0.990       .  S
Zr1174     O1175   2.433       .  S
Zr1174     O1176   2.436       .  S
Zr1174     O1180   2.365       .  S
Zr1174     O1182   2.362       .  S
O1175      H1191   0.990       .  S
O1176      H1200   0.990       .  S
Zr1177     O1180   2.390   1_556  S
Zr1177     O1182   2.393   1_556  S
Zr1177     O1183   2.398       .  S
Zr1178     O1179   2.389   1_556  S
Zr1178     O1181   2.383       .  S
Zr1178     O1184   2.379   1_556  S
O1179      H1187   0.967       .  S
O1182      H1186   0.967       .  S
O1183      H1188   0.967       .  S
C1201      H1203   1.086       .  S
C1201      C1202   1.344   1_554  D
C1202      H1204   1.086       .  S
C1205      H1207   1.087       .  S
C1205      C1206   1.342   1_556  D
C1206      H1208   1.086       .  S
C1209      H1211   1.086       .  S
C1209      C1210   1.348   1_554  D
C1210      H1212   1.086       .  S
C1213      H1215   1.086       .  S
C1213      C1214   1.348   1_554  D
C1214      H1216   1.086       .  S
C1217      C1218   1.397       .  A
C1217      C1222   1.397       .  A
C1217      H1223   1.083       .  S
C1218      C1219   1.403       .  A
C1219      C1220   1.398       .  A
C1219      H1224   1.084       .  S
C1220      C1221   1.404       .  A
C1220      H1225   1.083       .  S
C1221      C1222   1.409       .  A
C1222      H1226   1.083       .  S
C1227      C1228   1.408       .  A
C1227      C1232   1.402       .  A
C1227      H1233   1.082       .  S
C1228      C1229   1.401       .  A
C1229      C1230   1.392       .  A
C1229      H1234   1.083       .  S
C1230      C1231   1.408       .  A
C1230      H1235   1.083       .  S
C1231      C1232   1.403       .  A
C1232      H1236   1.083       .  S
C1237      C1238   1.397       .  A
C1237      C1242   1.389       .  A
C1237      H1243   1.084       .  S
C1238      C1239   1.410       .  A
C1239      C1240   1.404       .  A
C1239      H1244   1.083       .  S
C1240      C1241   1.402       .  A
C1240      H1245   1.083       .  S
C1241      C1242   1.408       .  A
C1242      H1246   1.083       .  S
C1247      C1248   1.403       .  A
C1247      C1252   1.396       .  A
C1247      H1253   1.084       .  S
C1248      C1249   1.396       .  A
C1249      C1250   1.394       .  A
C1249      H1254   1.083       .  S
C1250      C1251   1.413       .  A
C1250      H1255   1.083       .  S
C1251      C1252   1.407       .  A
C1252      H1256   1.078       .  S
C1257      H1259   1.085       .  S
C1257      C1258   1.347       .  D
C1258      H1260   1.087       .  S
C1261      H1263   1.087       .  S
C1261      C1262   1.347       .  D
C1262      H1264   1.086       .  S
C1265      H1267   1.085       .  S
C1265      C1266   1.351       .  D
C1266      H1268   1.086       .  S
C1269      H1271   1.086       .  S
C1269      C1270   1.349       .  D
C1270      H1272   1.087       .  S
C1273      C1274   1.403       .  A
C1273      C1278   1.399       .  A
C1273      H1279   1.083       .  S
C1274      C1275   1.398       .  A
C1275      C1276   1.399       .  A
C1275      H1280   1.083       .  S
C1276      C1277   1.409       .  A
C1276      H1281   1.083       .  S
C1277      C1278   1.405       .  A
C1278      H1282   1.083       .  S
C1283      C1284   1.402       .  A
C1283      C1288   1.393       .  A
C1283      H1289   1.083       .  S
C1284      C1285   1.408       .  A
C1285      C1286   1.404       .  A
C1285      H1290   1.082       .  S
C1286      C1287   1.404       .  A
C1286      H1291   1.083       .  S
C1287      C1288   1.407       .  A
C1288      H1292   1.083       .  S
C1293      C1294   1.406       .  A
C1293      C1298   1.395       .  A
C1293      H1299   1.078       .  S
C1294      C1295   1.412       .  A
C1295      C1296   1.389       .  A
C1295      H1300   1.084       .  S
C1296      C1297   1.394       .  A
C1296      H1301   1.084       .  S
C1297      C1298   1.403       .  A
C1298      H1302   1.084       .  S
C1303      C1304   1.411       .  A
C1303      C1308   1.393       .  A
C1303      H1309   1.084       .  S
C1304      C1305   1.399       .  A
C1305      C1306   1.401       .  A
C1305      H1310   1.083       .  S
C1306      C1307   1.410       .  A
C1306      H1311   1.083       .  S
C1307      C1308   1.397       .  A
C1308      H1312   1.084       .  S
