geometry optimzed in LAMMPS
_audit_creation_date              2020-12-01 
_audit_creation_method            'lammps2cif' 
_symmetry_space_group_name_H-M    'P1' 
_symmetry_Int_Tables_number       1 
_symmetry_cell_setting            triclinic 
loop_ 
_symmetry_equiv_pos_as_xyz 
  x,y,z 
_cell_length_a                    29.25075618 
_cell_length_b                    30.439350937584386 
_cell_length_c                    31.652681919728533 
_cell_angle_alpha                 90.00755726821217 
_cell_angle_beta                  89.97476543749333 
_cell_angle_gamma                 89.86123138364792 
loop_ 
_atom_site_label 
_atom_site_type_symbol 
_atom_site_fract_x 
_atom_site_fract_y 
_atom_site_fract_z 
_atom_site_charge 
C1          C  0.09163943  0.41416170  0.09758537     0.47600
N2          N  0.05292856  0.42541925  0.04254018     0.06500
C3          C  0.04971353  0.10512400  0.42064972    -0.01400
H4          H  0.02804065  0.13316117  0.08157065     0.12000
C5          C  0.39332783  0.04698864  0.07641449    -0.01600
Co6        Co  0.08295386  0.00330950  0.99785568     0.74200
N7          N  0.04574683  0.07889368  0.04231094    -0.20900
Co8        Co  0.49768904  0.07862731  0.49786804     0.74100
C9          C  0.41105652  0.08583547  0.09761033     0.47700
N10         N  0.42451475  0.45061696  0.04306016     0.06100
N11         N  0.44981572  0.07457765  0.04256100     0.06200
N12         N  0.10533651  0.05340400  0.42004164    -0.41700
H13         H  0.13825506  0.47358325  0.08420323     0.12000
N14         N  0.07822429  0.04937860  0.04306864     0.06500
N15         N  0.44985664  0.07457732  0.45317588     0.06300
C16         C  0.41114866  0.08583266  0.39812948     0.47900
N17         N  0.45699313  0.42110152  0.04229233    -0.20300
C18         C  0.10945957  0.45300614  0.41930146    -0.01300
N19         N  0.05705275  0.39849396  0.07436452    -0.41500
N20         N  0.44573435  0.10150132  0.42135050    -0.41700
C21         C  0.09173166  0.41415894  0.39810570     0.47600
N22         N  0.07826495  0.04937941  0.45265524     0.06500
N23         N  0.45703321  0.42110327  0.45340470    -0.20400
N24         N  0.08312638  0.45699004  0.04276566    -0.20900
N25         N  0.42455526  0.45061771  0.45264685     0.06100
H26         H  0.47473852  0.36683283  0.41414785     0.12000
H27         H  0.36453318  0.02641109  0.41151111     0.12100
N28         N  0.04578709  0.07889532  0.45342290    -0.20900
N29         N  0.41961862  0.04300617  0.04278108    -0.20500
N30         N  0.05296958  0.42541897  0.45315380     0.06500
C31         C  0.08901184  0.08785814  0.09764854     0.47900
C32         C  0.45306555  0.39487098  0.07506361    -0.01800
N33         N  0.41965880  0.04300645  0.45295035    -0.20500
H34         H  0.36445562  0.02641308  0.08421829     0.12100
N35         N  0.10526545  0.05340164  0.07568326    -0.41700
H36         H  0.47466203  0.36682468  0.08153182     0.12000
C37         C  0.41376635  0.41213533  0.39806888     0.47700
C38         C  0.10938804  0.45300689  0.07639614    -0.01300
Co39       Co  0.00509542  0.42137075  0.99784739     0.73800
N40         N  0.39744133  0.44658960  0.07567220    -0.41500
C41         C  0.08910356  0.08786209  0.39808756     0.48000
N42         N  0.05712443  0.39849130  0.42132439    -0.41500
Co43       Co  0.41982834  0.49668723  0.49785975     0.73900
C44         C  0.39339940  0.04698781  0.41931863    -0.01800
C45         C  0.04964185  0.10512028  0.07509263    -0.01300
N46         N  0.08316667  0.45699036  0.45293371    -0.20900
N47         N  0.44566278  0.10150402  0.07439148    -0.41600
H48         H  0.02811785  0.13316786  0.41418042     0.12000
C49         C  0.45313726  0.39487485  0.42062466    -0.01800
Cl50       Cl  0.00139099  0.99999920  0.99785770    -0.44800
C51         C  0.41367481  0.41213108  0.09762577     0.47800
H52         H  0.13833266  0.47358152  0.41149799     0.12000
N53         N  0.39751217  0.44659205  0.42003378    -0.41500
C54         C  0.38214848  0.38428867  0.37501967     0.02700
C55         C  0.38203687  0.38428734  0.12067296     0.02700
C56         C  0.29410807  0.35487910  0.02081480     0.07500
C57         C  0.29413233  0.35487870  0.47487042     0.07400
C58         C  0.25167595  0.35351212  0.45412276    -0.13100
C59         C  0.20919720  0.35438544  0.47488578     0.07500
C60         C  0.20917289  0.35438447  0.02078828     0.07400
C61         C  0.25162917  0.35351160  0.04155659    -0.13100
H62         H  0.25158653  0.35357760  0.07596983     0.09500
H63         H  0.25167056  0.35357855  0.41970942     0.09500
C64         C  0.38166888  0.11599301  0.37535358     0.02700
C65         C  0.34193649  0.47726453  0.28694750     0.07500
C66         C  0.34091296  0.02459599  0.28685057     0.07400
C67         C  0.33868274  0.04642964  0.24788546    -0.13100
C68         C  0.34084923  0.02459623  0.20890990     0.07500
C69         C  0.34187331  0.47726521  0.20879890     0.07400
C70         C  0.34082292  0.45531310  0.24787155    -0.13100
H71         H  0.34201905  0.41960516  0.24786558     0.09500
H72         H  0.33839406  0.08217365  0.24789032     0.09500
C73         C  0.38155631  0.11599455  0.12039714     0.02700
C74         C  0.29358781  0.14562153  0.02083002     0.07500
C75         C  0.29361213  0.14562247  0.47492675     0.07400
C76         C  0.25115502  0.14649973  0.45415880    -0.13100
C77         C  0.20867541  0.14512452  0.47490013     0.07500
C78         C  0.20865112  0.14512497  0.02084545     0.07400
C79         C  0.25110822  0.14649943  0.04159268    -0.13100
H80         H  0.25111367  0.14643612  0.07600512     0.09500
H81         H  0.25119768  0.14643664  0.41974578     0.09500
C82         C  0.12123148  0.38399831  0.37531938     0.02700
C83         C  0.02553459  0.29085641  0.33817531     0.07500
C84         C  0.47623383  0.29030425  0.33764697     0.07400
C85         C  0.45403917  0.24945864  0.33628406    -0.13100
C86         C  0.47739184  0.20913197  0.33819378     0.07500
C87         C  0.02669014  0.20968362  0.33766394     0.07400
C88         C  0.04888718  0.25052730  0.33628238    -0.13100
H89         H  0.08606574  0.25092273  0.33667372     0.09500
H90         H  0.41686074  0.24906186  0.33667655     0.09500
C91         C  0.12074264  0.11570411  0.37504005     0.02700
C92         C  0.16089730  0.02271928  0.28691633     0.07500
C93         C  0.16196116  0.47538884  0.28680593     0.07400
C94         C  0.16415481  0.45355681  0.24782993    -0.13100
C95         C  0.16189741  0.47538914  0.20886448     0.07500
C96         C  0.16083396  0.02271989  0.20876828     0.07400
C97         C  0.16192403  0.04467160  0.24784398    -0.13100
H98         H  0.16069786  0.08037897  0.24784995     0.09500
H99         H  0.16447427  0.41781352  0.24782502     0.09500
C100        C  0.12063096  0.11570286  0.12069817     0.02700
C101        C  0.12111890  0.38399983  0.12036079     0.02700
C102        C  0.47609035  0.29031303  0.15805107     0.07500
C103        C  0.02539170  0.29086538  0.15752157     0.07400
C104        C  0.04874268  0.25053744  0.15943150    -0.13100
C105        C  0.02654676  0.20969244  0.15806888     0.07500
C106        C  0.47724888  0.20914093  0.15754028     0.07400
C107        C  0.45389473  0.24946877  0.15943307    -0.13100
H108        H  0.41671531  0.24907182  0.15904164     0.09500
H109        H  0.08592114  0.25093268  0.15903903     0.09500
C110        C  0.05600240  0.32868772  0.15100908    -0.08100
C111        C  0.08853363  0.35226654  0.14136882    -0.09700
C112        C  0.09047460  0.14838358  0.14334908    -0.08100
C113        C  0.05822371  0.17238647  0.15302974    -0.09700
C114        C  0.14584142  0.41374613  0.15063354    -0.08100
C115        C  0.15605120  0.44527672  0.17296464    -0.09700
C116        C  0.15468941  0.05238918  0.17239323    -0.08100
C117        C  0.14463655  0.08383435  0.14975242    -0.09700
C118        C  0.15480282  0.05238719  0.32331146    -0.08100
C119        C  0.14476323  0.08383346  0.34597160    -0.09700
C120        C  0.05836286  0.17238203  0.34271735    -0.08100
C121        C  0.09060567  0.14838438  0.35239996    -0.09700
C122        C  0.14596972  0.41374543  0.34504583    -0.08100
C123        C  0.15616625  0.44527696  0.32271045    -0.09700
C124        C  0.05614003  0.32868192  0.34467409    -0.08100
C125        C  0.08866447  0.35226185  0.35431045    -0.09700
C126        C  0.17040210  0.14132953  0.05148859    -0.08100
C127        C  0.14964339  0.13462549  0.08503850    -0.09700
C128        C  0.17045817  0.14132821  0.44425194    -0.08100
C129        C  0.14972923  0.13462457  0.41070086    -0.09700
C130        C  0.41412266  0.14773183  0.14140606    -0.08100
C131        C  0.44664580  0.17131354  0.15104217    -0.09700
C132        C  0.35279776  0.13542483  0.08481847    -0.08100
C133        C  0.33192721  0.14218199  0.05136042    -0.09700
C134        C  0.35682372  0.08624316  0.15067064    -0.08100
C135        C  0.34663661  0.05470710  0.17300391    -0.09700
C136        C  0.41425350  0.14772715  0.35434558    -0.08100
C137        C  0.44678347  0.17130771  0.34470557    -0.09700
C138        C  0.35288475  0.13542764  0.41093991    -0.08100
C139        C  0.33198359  0.14218488  0.44439985    -0.09700
C140        C  0.34675167  0.05470739  0.32275189    -0.08100
C141        C  0.35695202  0.08624256  0.34508080    -0.09700
C142        C  0.14990035  0.36456522  0.08477412    -0.08100
C143        C  0.17080084  0.35781298  0.05131364    -0.09700
C144        C  0.14998735  0.36456803  0.41089836    -0.08100
C145        C  0.17085727  0.35781590  0.44435693    -0.09700
C146        C  0.34796797  0.44759661  0.17240445    -0.08100
C147        C  0.35801191  0.41615383  0.14974185    -0.09700
C148        C  0.44441717  0.32761281  0.15299643    -0.08100
C149        C  0.41217409  0.35160880  0.14331300    -0.09700
C150        C  0.35305351  0.36536542  0.08501263    -0.08100
C151        C  0.33232604  0.35866537  0.05146107    -0.09700
C152        C  0.33238224  0.35866403  0.44422938    -0.08100
C153        C  0.35313946  0.36536443  0.41067896    -0.09700
C154        C  0.35813836  0.41615292  0.34596506    -0.08100
C155        C  0.34808113  0.44759457  0.32332184    -0.09700
C156        C  0.41230514  0.35160966  0.35236876    -0.08100
C157        C  0.44455636  0.32760844  0.34268727    -0.09700
C158        C  0.09163947  0.41416178  0.59758540     0.47600
N159        N  0.05292849  0.42541925  0.54254030     0.06500
C160        C  0.04971373  0.10512399  0.92064976    -0.01400
H161        H  0.02803869  0.13316381  0.58157102     0.12000
C162        C  0.39332779  0.04698870  0.57641453    -0.01600
Co163      Co  0.08295383  0.00330967  0.49785568     0.74200
N164        N  0.04574657  0.07889416  0.54231103    -0.20900
Co165      Co  0.49768886  0.07862727  0.99786783     0.74100
C166        C  0.41105645  0.08583552  0.59761036     0.47700
N167        N  0.42451468  0.45061707  0.54306009     0.06100
N168        N  0.44981574  0.07457764  0.54256105     0.06200
N169        N  0.10533667  0.05340378  0.92004169    -0.41700
H170        H  0.13825548  0.47358363  0.58420338     0.12000
N171        N  0.07822419  0.04937873  0.54306877     0.06500
N172        N  0.44985635  0.07457709  0.95317568     0.06300
C173        C  0.41114803  0.08583225  0.89812940     0.47900
N174        N  0.45699291  0.42110176  0.54229226    -0.20300
C175        C  0.10945965  0.45300618  0.91930156    -0.01300
N176        N  0.05705274  0.39849402  0.57436453    -0.41500
N177        N  0.44573402  0.10150086  0.92135030    -0.41700
C178        C  0.09173198  0.41415910  0.89810566     0.47600
N179        N  0.07826505  0.04937921  0.95265532     0.06500
N180        N  0.45703356  0.42110292  0.95340456    -0.20400
N181        N  0.08312641  0.45699015  0.54276573    -0.20900
N182        N  0.42455535  0.45061761  0.95264670     0.06100
H183        H  0.47474018  0.36683045  0.91414761     0.12000
H184        H  0.36452995  0.02640892  0.91151055     0.12100
N185        N  0.04578732  0.07889503  0.95342297    -0.20900
N186        N  0.41961869  0.04300618  0.54278117    -0.20500
N187        N  0.05296965  0.42541898  0.95315363     0.06500
C188        C  0.08901152  0.08785853  0.59764858     0.47900
C189        C  0.45306547  0.39487107  0.57506373    -0.01800
N190        N  0.41965821  0.04300609  0.95295013    -0.20500
H191        H  0.36445559  0.02641319  0.58421828     0.12100
N192        N  0.10526513  0.05340185  0.57568327    -0.41700
H193        H  0.47466087  0.36682622  0.58153172     0.12000
C194        C  0.41376660  0.41213495  0.89806888     0.47700
C195        C  0.10938799  0.45300695  0.57639618    -0.01300
Co196      Co  0.00509540  0.42137068  0.49784751     0.73800
N197        N  0.39744117  0.44658973  0.57567215    -0.41500
C198        C  0.08910374  0.08786182  0.89808762     0.48000
N199        N  0.05712454  0.39849150  0.92132431    -0.41500
Co200      Co  0.41982836  0.49668716  0.99785972     0.73900
C201        C  0.39339916  0.04698768  0.91931875    -0.01800
C202        C  0.04964179  0.10512039  0.57509251    -0.01300
N203        N  0.08316699  0.45699054  0.95293361    -0.20900
N204        N  0.44566276  0.10150402  0.57439154    -0.41600
H205        H  0.02811901  0.13316676  0.91418077     0.12000
C206        C  0.45313730  0.39487476  0.92062481    -0.01800
Cl207      Cl  0.00139101  0.99999922  0.49785769    -0.44800
C208        C  0.41367460  0.41213133  0.59762576     0.47800
H209        H  0.13833458  0.47358280  0.91149772     0.12000
N210        N  0.39751249  0.44659192  0.92003371    -0.41500
C211        C  0.38214851  0.38428861  0.87501968     0.02700
C212        C  0.38203682  0.38428741  0.62067296     0.02700
C213        C  0.29410808  0.35487908  0.52081480     0.07500
C214        C  0.29413234  0.35487869  0.97487042     0.07400
C215        C  0.25167597  0.35351203  0.95412276    -0.13100
C216        C  0.20919721  0.35438540  0.97488577     0.07500
C217        C  0.20917290  0.35438452  0.52078827     0.07400
C218        C  0.25162919  0.35351171  0.54155659    -0.13100
H219        H  0.25158656  0.35357782  0.57596982     0.09500
H220        H  0.25167058  0.35357837  0.91970942     0.09500
C221        C  0.38166875  0.11599293  0.87535354     0.02700
C222        C  0.34193650  0.47726445  0.78694740     0.07500
C223        C  0.34091297  0.02459570  0.78685049     0.07400
C224        C  0.33868273  0.04642931  0.74788547    -0.13100
C225        C  0.34084922  0.02459604  0.70890997     0.07500
C226        C  0.34187331  0.47726517  0.70879887     0.07400
C227        C  0.34082294  0.45531315  0.74787145    -0.13100
H228        H  0.34201913  0.41960431  0.74786545     0.09500
H229        H  0.33839403  0.08217332  0.74789033     0.09500
C230        C  0.38155628  0.11599465  0.62039716     0.02700
C231        C  0.29358791  0.14562158  0.52082997     0.07500
C232        C  0.29361211  0.14562246  0.97492680     0.07400
C233        C  0.25115503  0.14649985  0.95415882    -0.13100
C234        C  0.20867539  0.14512455  0.97490012     0.07500
C235        C  0.20865121  0.14512491  0.52084546     0.07400
C236        C  0.25110834  0.14649932  0.54159266    -0.13100
H237        H  0.25111376  0.14643605  0.57600508     0.09500
H238        H  0.25119772  0.14643697  0.91974577     0.09500
C239        C  0.12123152  0.38399828  0.87531937     0.02700
C240        C  0.02553460  0.29085630  0.83817526     0.07500
C241        C  0.47623378  0.29030429  0.83764698     0.07400
C242        C  0.45403918  0.24945863  0.83628406    -0.13100
C243        C  0.47739187  0.20913199  0.83819381     0.07500
C244        C  0.02669014  0.20968350  0.83766389     0.07400
C245        C  0.04888718  0.25052718  0.83628222    -0.13100
H246        H  0.08606571  0.25092271  0.83667350     0.09500
H247        H  0.41686072  0.24906178  0.83667655     0.09500
C248        C  0.12074266  0.11570400  0.87504007     0.02700
C249        C  0.16089729  0.02271925  0.78691633     0.07500
C250        C  0.16196116  0.47538843  0.78680586     0.07400
C251        C  0.16415477  0.45355671  0.74782994    -0.13100
C252        C  0.16189742  0.47538870  0.70886454     0.07500
C253        C  0.16083397  0.02271993  0.70876829     0.07400
C254        C  0.16192402  0.04467163  0.74784400    -0.13100
H255        H  0.16069784  0.08037918  0.74785002     0.09500
H256        H  0.16447418  0.41781082  0.74782507     0.09500
C257        C  0.12063093  0.11570285  0.62069818     0.02700
C258        C  0.12111888  0.38399985  0.62036079     0.02700
C259        C  0.47609038  0.29031316  0.65805103     0.07500
C260        C  0.02539166  0.29086529  0.65752157     0.07400
C261        C  0.04874268  0.25053741  0.65943153    -0.13100
C262        C  0.02654678  0.20969237  0.65806891     0.07500
C263        C  0.47724893  0.20914104  0.65754023     0.07400
C264        C  0.45389473  0.24946889  0.65943286    -0.13100
H265        H  0.41671555  0.24907186  0.65904134     0.09500
H266        H  0.08592108  0.25093271  0.65903906     0.09500
C267        C  0.05600237  0.32868764  0.65100907    -0.08100
C268        C  0.08853360  0.35226649  0.64136881    -0.09700
C269        C  0.09047469  0.14838360  0.64334911    -0.08100
C270        C  0.05822372  0.17238639  0.65302978    -0.09700
C271        C  0.14584142  0.41374607  0.65063353    -0.08100
C272        C  0.15605120  0.44527658  0.67296467    -0.09700
C273        C  0.15468938  0.05238917  0.67239325    -0.08100
C274        C  0.14463649  0.08383430  0.64975242    -0.09700
C275        C  0.15480282  0.05238710  0.82331149    -0.08100
C276        C  0.14476328  0.08383338  0.84597161    -0.09700
C277        C  0.05836287  0.17238194  0.84271735    -0.08100
C278        C  0.09060566  0.14838427  0.85239999    -0.09700
C279        C  0.14596973  0.41374535  0.84504584    -0.08100
C280        C  0.15616625  0.44527687  0.82271048    -0.09700
C281        C  0.05614008  0.32868182  0.84467407    -0.08100
C282        C  0.08866447  0.35226182  0.85431047    -0.09700
C283        C  0.17040217  0.14132944  0.55148863    -0.08100
C284        C  0.14964343  0.13462547  0.58503854    -0.09700
C285        C  0.17045821  0.14132816  0.94425190    -0.08100
C286        C  0.14972931  0.13462449  0.91070082    -0.09700
C287        C  0.41412267  0.14773190  0.64140607    -0.08100
C288        C  0.44664581  0.17131364  0.65104215    -0.09700
C289        C  0.35279781  0.13542494  0.58481844    -0.08100
C290        C  0.33192732  0.14218209  0.55136036    -0.09700
C291        C  0.35682367  0.08624322  0.65067071    -0.08100
C292        C  0.34663658  0.05470710  0.67300399    -0.09700
C293        C  0.41425353  0.14772706  0.85434563    -0.08100
C294        C  0.44678346  0.17130775  0.84470563    -0.09700
C295        C  0.35288468  0.13542754  0.91093993    -0.08100
C296        C  0.33198358  0.14218483  0.94439989    -0.09700
C297        C  0.34675167  0.05470719  0.82275181    -0.08100
C298        C  0.35695191  0.08624246  0.84508069    -0.09700
C299        C  0.14990035  0.36456523  0.58477413    -0.08100
C300        C  0.17080085  0.35781305  0.55131363    -0.09700
C301        C  0.14998737  0.36456802  0.91089833    -0.08100
C302        C  0.17085728  0.35781587  0.94435691    -0.09700
C303        C  0.34796795  0.44759669  0.67240440    -0.08100
C304        C  0.35801182  0.41615388  0.64974183    -0.09700
C305        C  0.44441722  0.32761296  0.65299643    -0.08100
C306        C  0.41217411  0.35160893  0.64331301    -0.09700
C307        C  0.35305351  0.36536543  0.58501264    -0.08100
C308        C  0.33232605  0.35866534  0.55146108    -0.09700
C309        C  0.33238223  0.35866406  0.94422936    -0.08100
C310        C  0.35313947  0.36536447  0.91067897    -0.09700
C311        C  0.35813841  0.41615287  0.84596504    -0.08100
C312        C  0.34808114  0.44759451  0.82332177    -0.09700
C313        C  0.41230505  0.35160960  0.85236874    -0.08100
C314        C  0.44455630  0.32760846  0.84268727    -0.09700
C315        C  0.09163937  0.91416164  0.09758536     0.47600
N316        N  0.05292860  0.92541927  0.04254015     0.06500
C317        C  0.04971361  0.60512403  0.42064973    -0.01400
H318        H  0.02804041  0.63316152  0.08157067     0.12000
C319        C  0.39332782  0.54698862  0.07641450    -0.01600
Co320      Co  0.08295380  0.50330953  0.99785563     0.74200
N321        N  0.04574684  0.57889374  0.04231090    -0.20900
Co322      Co  0.49768896  0.57862728  0.49786799     0.74100
C323        C  0.41105649  0.58583546  0.09761033     0.47700
N324        N  0.42451457  0.95061712  0.04306004     0.06100
N325        N  0.44981568  0.57457765  0.04256099     0.06200
N326        N  0.10533652  0.55340402  0.42004165    -0.41700
H327        H  0.13825446  0.97358283  0.08420313     0.12000
N328        N  0.07822433  0.54937857  0.04306863     0.06500
N329        N  0.44985647  0.57457719  0.45317579     0.06300
C330        C  0.41114833  0.58583249  0.39812943     0.47900
N331        N  0.45699280  0.92110192  0.04229218    -0.20300
C332        C  0.10945980  0.95300619  0.41930161    -0.01300
N333        N  0.05705274  0.89849390  0.07436452    -0.41500
N334        N  0.44573414  0.60150111  0.42135045    -0.41700
C335        C  0.09173207  0.91415918  0.39810567     0.47600
N336        N  0.07826490  0.54937937  0.45265526     0.06500
N337        N  0.45703322  0.92110327  0.45340467    -0.20400
N338        N  0.08312633  0.95698998  0.04276564    -0.20900
N339        N  0.42455526  0.95061772  0.45264684     0.06100
H340        H  0.47473857  0.86683287  0.41414780     0.12000
H341        H  0.36453149  0.52640999  0.41151089     0.12100
N342        N  0.04578713  0.57889522  0.45342292    -0.20900
N343        N  0.41961861  0.54300615  0.04278110    -0.20500
N344        N  0.05296973  0.92541911  0.45315368     0.06500
C345        C  0.08901179  0.58785816  0.09764854     0.47900
C346        C  0.45306546  0.89487118  0.07506373    -0.01800
N347        N  0.41965847  0.54300624  0.45295024    -0.20500
H348        H  0.36445564  0.52641304  0.08421831     0.12100
N349        N  0.10526539  0.55340162  0.07568323    -0.41700
H350        H  0.47466034  0.86682701  0.08153155     0.12000
C351        C  0.41376634  0.91213534  0.39806885     0.47700
C352        C  0.10938803  0.95300690  0.07639621    -0.01300
Co353      Co  0.00509546  0.92137072  0.99784736     0.73800
N354        N  0.39744103  0.94658980  0.07567215    -0.41500
C355        C  0.08910363  0.58786209  0.39808760     0.48000
N356        N  0.05712463  0.89849156  0.42132434    -0.41500
Co357      Co  0.41982837  0.99668725  0.49785976     0.73900
C358        C  0.39339924  0.54698778  0.41931871    -0.01800
C359        C  0.04964185  0.60512025  0.07509260    -0.01300
N360        N  0.08316710  0.95699062  0.45293357    -0.20900
N361        N  0.44566277  0.60150399  0.07439149    -0.41600
H362        H  0.02811845  0.63316738  0.41418055     0.12000
C363        C  0.45313728  0.89487487  0.42062462    -0.01800
Cl364      Cl  0.00139101  0.49999921  0.99785769    -0.44800
C365        C  0.41367452  0.91213148  0.09762577     0.47800
H366        H  0.13833514  0.97358313  0.41149767     0.12000
N367        N  0.39751218  0.94659206  0.42003376    -0.41500
C368        C  0.38214844  0.88428869  0.37501967     0.02700
C369        C  0.38203682  0.88428740  0.12067297     0.02700
C370        C  0.29410815  0.85487908  0.02081479     0.07500
C371        C  0.29413239  0.85487878  0.47487045     0.07400
C372        C  0.25167603  0.85351217  0.45412279    -0.13100
C373        C  0.20919725  0.85438544  0.47488578     0.07500
C374        C  0.20917297  0.85438444  0.02078828     0.07400
C375        C  0.25162927  0.85351156  0.04155659    -0.13100
H376        H  0.25158661  0.85357756  0.07596983     0.09500
H377        H  0.25167068  0.85357864  0.41970945     0.09500
C378        C  0.38166880  0.61599303  0.37535356     0.02700
C379        C  0.34193645  0.97726454  0.28694748     0.07500
C380        C  0.34091297  0.52459592  0.28685057     0.07400
C381        C  0.33868271  0.54642965  0.24788546    -0.13100
C382        C  0.34084927  0.52459621  0.20890990     0.07500
C383        C  0.34187324  0.97726517  0.20879890     0.07400
C384        C  0.34082285  0.95531312  0.24787152    -0.13100
H385        H  0.34201899  0.91960502  0.24786556     0.09500
H386        H  0.33839403  0.58217314  0.24789031     0.09500
C387        C  0.38155630  0.61599455  0.12039715     0.02700
C388        C  0.29358791  0.64562155  0.02083000     0.07500
C389        C  0.29361220  0.64562245  0.47492678     0.07400
C390        C  0.25115511  0.64649970  0.45415881    -0.13100
C391        C  0.20867549  0.64512450  0.47490012     0.07500
C392        C  0.20865122  0.64512494  0.02084546     0.07400
C393        C  0.25110833  0.64649938  0.04159267    -0.13100
H394        H  0.25111375  0.64643605  0.07600511     0.09500
H395        H  0.25119776  0.64643663  0.41974579     0.09500
C396        C  0.12123157  0.88399831  0.37531935     0.02700
C397        C  0.02553455  0.79085642  0.33817531     0.07500
C398        C  0.47623377  0.79030428  0.33764697     0.07400
C399        C  0.45403916  0.74945864  0.33628405    -0.13100
C400        C  0.47739183  0.70913198  0.33819378     0.07500
C401        C  0.02669008  0.70968360  0.33766395     0.07400
C402        C  0.04888718  0.75052728  0.33628238    -0.13100
H403        H  0.08606522  0.75092272  0.33667371     0.09500
H404        H  0.41686072  0.74906184  0.33667654     0.09500
C405        C  0.12074265  0.61570411  0.37504005     0.02700
C406        C  0.16089726  0.52271918  0.28691634     0.07500
C407        C  0.16196120  0.97538889  0.28680593     0.07400
C408        C  0.16415478  0.95355684  0.24782994    -0.13100
C409        C  0.16189733  0.97538912  0.20886449     0.07500
C410        C  0.16083405  0.52271987  0.20876828     0.07400
C411        C  0.16192405  0.54467158  0.24784400    -0.13100
H412        H  0.16069794  0.58037845  0.24784998     0.09500
H413        H  0.16447433  0.91781352  0.24782504     0.09500
C414        C  0.12063095  0.61570283  0.12069816     0.02700
C415        C  0.12111890  0.88399980  0.12036078     0.02700
C416        C  0.47609033  0.79031307  0.15805105     0.07500
C417        C  0.02539171  0.79086533  0.15752157     0.07400
C418        C  0.04874264  0.75053740  0.15943149    -0.13100
C419        C  0.02654673  0.70969243  0.15806888     0.07500
C420        C  0.47724895  0.70914092  0.15754028     0.07400
C421        C  0.45389473  0.74946879  0.15943306    -0.13100
H422        H  0.41671546  0.74907181  0.15904164     0.09500
H423        H  0.08592126  0.75093264  0.15903903     0.09500
C424        C  0.05600238  0.82868768  0.15100908    -0.08100
C425        C  0.08853364  0.85226648  0.14136880    -0.09700
C426        C  0.09047457  0.64838354  0.14334907    -0.08100
C427        C  0.05822366  0.67238644  0.15302973    -0.09700
C428        C  0.14584141  0.91374608  0.15063356    -0.08100
C429        C  0.15605113  0.94527667  0.17296468    -0.09700
C430        C  0.15468950  0.55238922  0.17239325    -0.08100
C431        C  0.14463661  0.58383436  0.14975243    -0.09700
C432        C  0.15480274  0.55238712  0.32331148    -0.08100
C433        C  0.14476323  0.58383342  0.34597161    -0.09700
C434        C  0.05836291  0.67238206  0.34271735    -0.08100
C435        C  0.09060569  0.64838437  0.35239998    -0.09700
C436        C  0.14596980  0.91374543  0.34504580    -0.08100
C437        C  0.15616631  0.94527699  0.32271046    -0.09700
C438        C  0.05614001  0.82868196  0.34467409    -0.08100
C439        C  0.08866445  0.85226191  0.35431047    -0.09700
C440        C  0.17040216  0.64132951  0.05148861    -0.08100
C441        C  0.14964339  0.63462548  0.08503850    -0.09700
C442        C  0.17045826  0.64132819  0.44425190    -0.08100
C443        C  0.14972932  0.63462456  0.41070081    -0.09700
C444        C  0.41412270  0.64773181  0.14140605    -0.08100
C445        C  0.44664586  0.67131350  0.15104217    -0.09700
C446        C  0.35279781  0.63542484  0.08481845    -0.08100
C447        C  0.33192729  0.64218201  0.05136039    -0.09700
C448        C  0.35682371  0.58624317  0.15067067    -0.08100
C449        C  0.34663661  0.55470711  0.17300392    -0.09700
C450        C  0.41425352  0.64772711  0.35434560    -0.08100
C451        C  0.44678347  0.67130771  0.34470558    -0.09700
C452        C  0.35288473  0.63542763  0.41093994    -0.08100
C453        C  0.33198365  0.64218487  0.44439990    -0.09700
C454        C  0.34675161  0.55470740  0.32275188    -0.08100
C455        C  0.35695193  0.58624259  0.34508078    -0.09700
C456        C  0.14990037  0.86456519  0.08477413    -0.08100
C457        C  0.17080092  0.85781296  0.05131367    -0.09700
C458        C  0.14998740  0.86456802  0.41089833    -0.08100
C459        C  0.17085729  0.85781586  0.44435692    -0.09700
C460        C  0.34796790  0.94759660  0.17240447    -0.08100
C461        C  0.35801182  0.91615383  0.14974189    -0.09700
C462        C  0.44441714  0.82761282  0.15299640    -0.08100
C463        C  0.41217412  0.85160887  0.14331295    -0.09700
C464        C  0.35305354  0.86536543  0.08501261    -0.08100
C465        C  0.33232611  0.85866535  0.05146104    -0.09700
C466        C  0.33238224  0.85866410  0.44422938    -0.08100
C467        C  0.35313946  0.86536448  0.41067898    -0.09700
C468        C  0.35813833  0.91615292  0.34596505    -0.08100
C469        C  0.34808110  0.94759457  0.32332183    -0.09700
C470        C  0.41230506  0.85160967  0.35236876    -0.08100
C471        C  0.44455627  0.82760845  0.34268725    -0.09700
C472        C  0.09163934  0.91416169  0.59758542     0.47600
N473        N  0.05292856  0.92541930  0.54254025     0.06500
C474        C  0.04971362  0.60512406  0.92064979    -0.01400
H475        H  0.02803920  0.63316312  0.58157090     0.12000
C476        C  0.39332778  0.54698869  0.57641452    -0.01600
Co477      Co  0.08295373  0.50330962  0.49785568     0.74200
N478        N  0.04574659  0.57889409  0.54231099    -0.20900
Co479      Co  0.49768888  0.57862725  0.99786787     0.74100
C480        C  0.41105644  0.58583552  0.59761036     0.47700
N481        N  0.42451462  0.95061703  0.54306009     0.06100
N482        N  0.44981574  0.57457762  0.54256105     0.06200
N483        N  0.10533648  0.55340397  0.92004165    -0.41700
H484        H  0.13825452  0.97358297  0.58420320     0.12000
N485        N  0.07822417  0.54937879  0.54306872     0.06500
N486        N  0.44985646  0.57457714  0.95317572     0.06300
C487        C  0.41114824  0.58583250  0.89812943     0.47900
N488        N  0.45699291  0.92110168  0.54229225    -0.20300
C489        C  0.10945984  0.95300615  0.91930163    -0.01300
N490        N  0.05705269  0.89849394  0.57436457    -0.41500
N491        N  0.44573412  0.60150107  0.92135035    -0.41700
C492        C  0.09173216  0.91415920  0.89810561     0.47600
N493        N  0.07826493  0.54937933  0.95265524     0.06500
N494        N  0.45703352  0.92110291  0.95340456    -0.20400
N495        N  0.08312634  0.95699007  0.54276569    -0.20900
N496        N  0.42455530  0.95061758  0.95264670     0.06100
H497        H  0.47474020  0.86683047  0.91414758     0.12000
H498        H  0.36453140  0.52641014  0.91151093     0.12100
N499        N  0.04578710  0.57889527  0.95342288    -0.20900
N500        N  0.41961867  0.54300618  0.54278115    -0.20500
N501        N  0.05296968  0.92541912  0.95315356     0.06500
C502        C  0.08901156  0.58785849  0.59764857     0.47900
C503        C  0.45306549  0.89487108  0.57506370    -0.01800
N504        N  0.41965844  0.54300628  0.95295020    -0.20500
H505        H  0.36445561  0.52641318  0.58421827     0.12100
N506        N  0.10526513  0.55340185  0.57568329    -0.41700
H507        H  0.47466125  0.86682593  0.58153180     0.12000
C508        C  0.41376658  0.91213492  0.89806886     0.47700
C509        C  0.10938801  0.95300695  0.57639624    -0.01300
Co510      Co  0.00509548  0.92137069  0.49784748     0.73800
N511        N  0.39744115  0.94658972  0.57567216    -0.41500
C512        C  0.08910355  0.58786211  0.89808760     0.48000
N513        N  0.05712458  0.89849166  0.92132425    -0.41500
Co514      Co  0.41982830  0.99668719  0.99785968     0.73900
C515        C  0.39339914  0.54698784  0.91931872    -0.01800
C516        C  0.04964176  0.60512038  0.57509255    -0.01300
N517        N  0.08316716  0.95699063  0.95293352    -0.20900
N518        N  0.44566277  0.60150398  0.57439156    -0.41600
H519        H  0.02811796  0.63316809  0.91418052     0.12000
C520        C  0.45313730  0.89487476  0.92062479    -0.01800
Cl521      Cl  0.00139097  0.49999921  0.49785771    -0.44800
C522        C  0.41367468  0.91213132  0.59762578     0.47800
H523        H  0.13833578  0.97358337  0.91149771     0.12000
N524        N  0.39751246  0.94659188  0.92003370    -0.41500
C525        C  0.38214850  0.88428856  0.87501968     0.02700
C526        C  0.38203692  0.88428738  0.62067297     0.02700
C527        C  0.29410816  0.85487916  0.52081480     0.07500
C528        C  0.29413239  0.85487868  0.97487043     0.07400
C529        C  0.25167604  0.85351198  0.95412277    -0.13100
C530        C  0.20919726  0.85438539  0.97488576     0.07500
C531        C  0.20917298  0.85438450  0.52078830     0.07400
C532        C  0.25162928  0.85351165  0.54155661    -0.13100
H533        H  0.25158665  0.85357761  0.57596983     0.09500
H534        H  0.25167068  0.85357825  0.91970944     0.09500
C535        C  0.38166876  0.61599304  0.87535355     0.02700
C536        C  0.34193648  0.97726401  0.78694734     0.07500
C537        C  0.34091298  0.52459597  0.78685054     0.07400
C538        C  0.33868270  0.54642962  0.74788547    -0.13100
C539        C  0.34084924  0.52459628  0.70890992     0.07500
C540        C  0.34187325  0.97726475  0.70879893     0.07400
C541        C  0.34082290  0.95531300  0.74787145    -0.13100
H542        H  0.34201923  0.91960169  0.74786543     0.09500
H543        H  0.33839400  0.58217361  0.74789032     0.09500
C544        C  0.38155628  0.61599466  0.62039717     0.02700
C545        C  0.29358792  0.64562155  0.52082999     0.07500
C546        C  0.29361219  0.64562251  0.97492679     0.07400
C547        C  0.25115511  0.64649985  0.95415882    -0.13100
C548        C  0.20867548  0.64512456  0.97490012     0.07500
C549        C  0.20865122  0.64512488  0.52084546     0.07400
C550        C  0.25110833  0.64649928  0.54159267    -0.13100
H551        H  0.25111375  0.64643602  0.57600509     0.09500
H552        H  0.25119777  0.64643696  0.91974577     0.09500
C553        C  0.12123159  0.88399826  0.87531932     0.02700
C554        C  0.02553456  0.79085632  0.83817526     0.07500
C555        C  0.47623377  0.79030427  0.83764698     0.07400
C556        C  0.45403917  0.74945862  0.83628406    -0.13100
C557        C  0.47739186  0.70913198  0.83819380     0.07500
C558        C  0.02669007  0.70968348  0.83766389     0.07400
C559        C  0.04888716  0.75052717  0.83628220    -0.13100
H560        H  0.08606527  0.75092270  0.83667345     0.09500
H561        H  0.41686069  0.74906177  0.83667655     0.09500
C562        C  0.12074264  0.61570408  0.87504006     0.02700
C563        C  0.16089726  0.52271904  0.78691627     0.07500
C564        C  0.16196120  0.97538892  0.78680593     0.07400
C565        C  0.16415479  0.95355684  0.74782993    -0.13100
C566        C  0.16189734  0.97538921  0.70886447     0.07500
C567        C  0.16083406  0.52271971  0.70876833     0.07400
C568        C  0.16192405  0.54467129  0.74784399    -0.13100
H569        H  0.16069790  0.58037919  0.74785001     0.09500
H570        H  0.16447436  0.91781427  0.74782506     0.09500
C571        C  0.12063094  0.61570284  0.62069820     0.02700
C572        C  0.12111891  0.88399984  0.62036081     0.02700
C573        C  0.47609098  0.79031324  0.65805102     0.07500
C574        C  0.02539165  0.79086532  0.65752159     0.07400
C575        C  0.04874262  0.75053744  0.65943152    -0.13100
C576        C  0.02654676  0.70969244  0.65806890     0.07500
C577        C  0.47724947  0.70914095  0.65754023     0.07400
C578        C  0.45389488  0.74946890  0.65943291    -0.13100
H579        H  0.41671939  0.74907191  0.65904150     0.09500
H580        H  0.08592117  0.75093273  0.65903908     0.09500
C581        C  0.05600234  0.82868771  0.65100908    -0.08100
C582        C  0.08853362  0.85226651  0.64136881    -0.09700
C583        C  0.09047466  0.64838360  0.64334913    -0.08100
C584        C  0.05822372  0.67238645  0.65302978    -0.09700
C585        C  0.14584140  0.91374612  0.65063358    -0.08100
C586        C  0.15605112  0.94527670  0.67296469    -0.09700
C587        C  0.15468945  0.55238906  0.67239329    -0.08100
C588        C  0.14463653  0.58383425  0.64975247    -0.09700
C589        C  0.15480273  0.55238698  0.82331143    -0.08100
C590        C  0.14476321  0.58383333  0.84597159    -0.09700
C591        C  0.05836288  0.67238197  0.84271733    -0.08100
C592        C  0.09060564  0.64838432  0.85239999    -0.09700
C593        C  0.14596978  0.91374540  0.84504577    -0.08100
C594        C  0.15616629  0.94527696  0.82271045    -0.09700
C595        C  0.05614004  0.82868186  0.84467409    -0.08100
C596        C  0.08866446  0.85226184  0.85431050    -0.09700
C597        C  0.17040216  0.64132943  0.55148862    -0.08100
C598        C  0.14964340  0.63462547  0.58503853    -0.09700
C599        C  0.17045828  0.64132818  0.94425190    -0.08100
C600        C  0.14972934  0.63462452  0.91070082    -0.09700
C601        C  0.41412271  0.64773194  0.64140608    -0.08100
C602        C  0.44664590  0.67131365  0.65104216    -0.09700
C603        C  0.35279781  0.63542492  0.58481846    -0.08100
C604        C  0.33192731  0.64218209  0.55136039    -0.09700
C605        C  0.35682369  0.58624327  0.65067066    -0.08100
C606        C  0.34663658  0.55470720  0.67300393    -0.09700
C607        C  0.41425349  0.64772714  0.85434559    -0.08100
C608        C  0.44678344  0.67130777  0.84470559    -0.09700
C609        C  0.35288471  0.63542769  0.91093993    -0.08100
C610        C  0.33198365  0.64218494  0.94439991    -0.09700
C611        C  0.34675161  0.55470737  0.82275188    -0.08100
C612        C  0.35695189  0.58624258  0.84508077    -0.09700
C613        C  0.14990037  0.86456523  0.58477414    -0.08100
C614        C  0.17080092  0.85781302  0.55131367    -0.09700
C615        C  0.14998739  0.86456803  0.91089833    -0.08100
C616        C  0.17085728  0.85781585  0.94435691    -0.09700
C617        C  0.34796791  0.94759658  0.67240438    -0.08100
C618        C  0.35801185  0.91615381  0.64974181    -0.09700
C619        C  0.44441742  0.82761295  0.65299642    -0.08100
C620        C  0.41217424  0.85160887  0.64331305    -0.09700
C621        C  0.35305357  0.86536539  0.58501265    -0.08100
C622        C  0.33232615  0.85866538  0.55146106    -0.09700
C623        C  0.33238223  0.85866401  0.94422935    -0.08100
C624        C  0.35313950  0.86536444  0.91067898    -0.09700
C625        C  0.35813839  0.91615279  0.84596509    -0.08100
C626        C  0.34808110  0.94759437  0.82332178    -0.09700
C627        C  0.41230505  0.85160958  0.85236873    -0.08100
C628        C  0.44455631  0.82760845  0.84268727    -0.09700
C629        C  0.59163341  0.41416581  0.09758598     0.47600
N630        N  0.55292543  0.42542114  0.04253957     0.06500
C631        C  0.54971649  0.10512724  0.42065176    -0.01400
H632        H  0.52804179  0.13316809  0.08156772     0.12000
C633        C  0.89332234  0.04699217  0.07641382    -0.01600
Co634      Co  0.58295368  0.00331116  0.99785567     0.74200
N635        N  0.54574851  0.07889544  0.04231076    -0.20900
Co636      Co  0.99768662  0.07862776  0.49786791     0.74100
C637        C  0.91104995  0.08583928  0.09760972     0.47700
N638        N  0.92451702  0.45061916  0.04306013     0.06100
N639        N  0.94981232  0.07457944  0.04256174     0.06200
N640        N  0.60534075  0.05340861  0.42004325    -0.41700
H641        H  0.63824888  0.47358716  0.08420436     0.12000
N642        N  0.57822673  0.04938066  0.04306873     0.06500
N643        N  0.94985347  0.07457917  0.45317511     0.06300
C644        C  0.91114243  0.08583662  0.39813003     0.47900
N645        N  0.95699484  0.42110321  0.04229243    -0.20300
C646        C  0.60945412  0.45300969  0.41930086    -0.01300
N647        N  0.55704765  0.39849721  0.07436511    -0.41500
N648        N  0.94572919  0.10150438  0.42135086    -0.41700
C649        C  0.59172544  0.41416287  0.39810506     0.47600
N650        N  0.57826743  0.04938136  0.45265540     0.06500
N651        N  0.95703540  0.42110432  0.45340435    -0.20400
N652        N  0.58312318  0.45699195  0.04276511    -0.20900
N653        N  0.92455779  0.45061965  0.45264666     0.06100
H654        H  0.97474301  0.36683486  0.41414444     0.12000
H655        H  0.86452648  0.02641480  0.41151215     0.12100
N656        N  0.54578907  0.07889664  0.45342324    -0.20900
N657        N  0.91961502  0.04300783  0.04278178    -0.20500
N658        N  0.55296624  0.42542065  0.45315447     0.06500
C659        C  0.58901533  0.08786341  0.09764655     0.47900
C660        C  0.95306835  0.39487434  0.07506555    -0.01800
N661        N  0.91965558  0.04300826  0.45294970    -0.20500
H662        H  0.86444743  0.02641551  0.08421765     0.12100
N663        N  0.60526949  0.05340641  0.07568174    -0.41700
H664        H  0.97466376  0.36683051  0.08153479     0.12000
C665        C  0.91377033  0.41213987  0.39806686     0.47700
C666        C  0.60938267  0.45301059  0.07639680    -0.01300
Co667      Co  0.50509314  0.42137104  0.99784749     0.73800
N668        N  0.89744546  0.44659451  0.07567373    -0.41500
C669        C  0.58910729  0.08786700  0.39808964     0.48000
N670        N  0.55711919  0.39849436  0.42132399    -0.41500
Co671      Co  0.91982818  0.49668883  0.49785972     0.73900
C672        C  0.89339394  0.04699145  0.41931929    -0.01800
C673        C  0.54964471  0.10512357  0.07509053    -0.01300
N674        N  0.58316331  0.45699216  0.45293431    -0.20900
N675        N  0.94565735  0.10150693  0.07439105    -0.41600
H676        H  0.52812087  0.13317220  0.41418369     0.12000
C677        C  0.95314015  0.39487799  0.42062289    -0.01800
Cl678      Cl  0.50139100  0.99999918  0.99785767    -0.44800
C679        C  0.91367838  0.41213632  0.09762772     0.47800
H680        H  0.63832622  0.47358527  0.41149700     0.12000
N681        N  0.89751673  0.44659653  0.42003216    -0.41500
C682        C  0.88215093  0.38429552  0.37501724     0.02700
C683        C  0.88203932  0.38429434  0.12067532     0.02700
C684        C  0.79410652  0.35487380  0.02081527     0.07500
C685        C  0.79413072  0.35487344  0.47487001     0.07400
C686        C  0.75167364  0.35349903  0.45412276    -0.13100
C687        C  0.70919403  0.35437677  0.47488541     0.07500
C688        C  0.70916978  0.35437589  0.02078865     0.07400
C689        C  0.75162689  0.35349850  0.04155663    -0.13100
H690        H  0.75158420  0.35356137  0.07596925     0.09500
H691        H  0.75166823  0.35356230  0.41971035     0.09500
C692        C  0.88166297  0.11599850  0.37535463     0.02700
C693        C  0.84194786  0.47727841  0.28694714     0.07500
C694        C  0.84088450  0.02460943  0.28685086     0.07400
C695        C  0.83862710  0.04644135  0.24788549    -0.13100
C696        C  0.84082067  0.02460971  0.20890960     0.07500
C697        C  0.84188458  0.47727910  0.20879909     0.07400
C698        C  0.84085784  0.45532678  0.24787142    -0.13100
H699        H  0.84208404  0.41961897  0.24786539     0.09500
H700        H  0.83830767  0.08218743  0.24789035     0.09500
C701        C  0.88155036  0.11600003  0.12039606     0.02700
C702        C  0.79358472  0.14561296  0.02082971     0.07500
C703        C  0.79360900  0.14561383  0.47492715     0.07400
C704        C  0.75115271  0.14648664  0.45415882    -0.13100
C705        C  0.70867380  0.14511927  0.47490068     0.07500
C706        C  0.70864960  0.14511966  0.02084510     0.07400
C707        C  0.75110596  0.14648632  0.04159274    -0.13100
H708        H  0.75111135  0.14641999  0.07600629     0.09500
H709        H  0.75119535  0.14642054  0.41974577     0.09500
C710        C  0.62122562  0.38400372  0.37531829     0.02700
C711        C  0.52553294  0.29085734  0.33817523     0.07500
C712        C  0.97623511  0.29030597  0.33764651     0.07400
C713        C  0.95403920  0.24946094  0.33628387    -0.13100
C714        C  0.97739019  0.20913305  0.33819385     0.07500
C715        C  0.52669142  0.20968520  0.33766441     0.07400
C716        C  0.54888718  0.25052948  0.33628258    -0.13100
H717        H  0.58606544  0.25092648  0.33667402     0.09500
H718        H  0.91686080  0.24906564  0.33667631     0.09500
C719        C  0.62074507  0.11571094  0.37504246     0.02700
C720        C  0.66090863  0.02273319  0.28691658     0.07500
C721        C  0.66193267  0.47540208  0.28680552     0.07400
C722        C  0.66409912  0.45356876  0.24782997    -0.13100
C723        C  0.66186887  0.47540244  0.20886491     0.07500
C724        C  0.66084538  0.02273392  0.20876806     0.07400
C725        C  0.66195898  0.04468524  0.24784400    -0.13100
H726        H  0.66076270  0.08039406  0.24785000     0.09500
H727        H  0.66438786  0.41782488  0.24782509     0.09500
C728        C  0.62063336  0.11570976  0.12069579     0.02700
C729        C  0.62111309  0.38400538  0.12036189     0.02700
C730        C  0.97609174  0.29031485  0.15805152     0.07500
C731        C  0.52539004  0.29086634  0.15752172     0.07400
C732        C  0.54874264  0.25053973  0.15943161    -0.13100
C733        C  0.52654812  0.20969409  0.15806852     0.07500
C734        C  0.97724726  0.20914205  0.15754016     0.07400
C735        C  0.95389468  0.24947118  0.15943320    -0.13100
H736        H  0.91671615  0.24907566  0.15904192     0.09500
H737        H  0.58592145  0.25093658  0.15903918     0.09500
C738        C  0.55599844  0.32869058  0.15100988    -0.08100
C739        C  0.58852838  0.35227123  0.14136988    -0.09700
C740        C  0.59047679  0.14838877  0.14334670    -0.08100
C741        C  0.55822555  0.17238992  0.15302817    -0.09700
C742        C  0.64582993  0.41375586  0.15063466    -0.08100
C743        C  0.65603020  0.44529107  0.17296357    -0.09700
C744        C  0.65470073  0.05240387  0.17239373    -0.08100
C745        C  0.64464344  0.08384550  0.14975047    -0.09700
C746        C  0.65481399  0.05240163  0.32331110    -0.08100
C747        C  0.64477010  0.08384448  0.34597362    -0.09700
C748        C  0.55836467  0.17238539  0.34271898    -0.08100
C749        C  0.59060779  0.14838943  0.35240240    -0.09700
C750        C  0.64595819  0.41375509  0.34504479    -0.08100
C751        C  0.65614532  0.44529113  0.32271150    -0.09700
C752        C  0.55613615  0.32868468  0.34467331    -0.08100
C753        C  0.58865924  0.35226644  0.35430940    -0.09700
C754        C  0.67039974  0.14133431  0.05148617    -0.08100
C755        C  0.64964246  0.13463390  0.08503654    -0.09700
C756        C  0.67045583  0.14133300  0.44425437    -0.08100
C757        C  0.64972834  0.13463292  0.41070282    -0.09700
C758        C  0.91411739  0.14773652  0.14140495    -0.08100
C759        C  0.94664177  0.17131654  0.15104135    -0.09700
C760        C  0.85279453  0.13543031  0.08481711    -0.08100
C761        C  0.83192468  0.14218249  0.05135851    -0.09700
C762        C  0.85681214  0.08625289  0.15066960    -0.08100
C763        C  0.84661560  0.05472137  0.17300501    -0.09700
C764        C  0.91424823  0.14773186  0.35434660    -0.08100
C765        C  0.94677947  0.17131071  0.34470633    -0.09700
C766        C  0.85288151  0.13543313  0.41094129    -0.08100
C767        C  0.83198104  0.14218530  0.44440179    -0.09700
C768        C  0.84673070  0.05472165  0.32275071    -0.08100
C769        C  0.85694044  0.08625221  0.34508187    -0.09700
C770        C  0.64989718  0.36457078  0.08477552    -0.08100
C771        C  0.67079831  0.35781350  0.05131558    -0.09700
C772        C  0.64998411  0.36457347  0.41089698    -0.08100
C773        C  0.67085464  0.35781629  0.44435502    -0.09700
C774        C  0.84797911  0.44761127  0.17240391    -0.08100
C775        C  0.85801872  0.41616499  0.14974378    -0.09700
C776        C  0.94441904  0.32761643  0.15299807    -0.08100
C777        C  0.91217627  0.35161409  0.14331541    -0.09700
C778        C  0.85305265  0.36537388  0.08501460    -0.08100
C779        C  0.83232369  0.35867019  0.05146355    -0.09700
C780        C  0.83237978  0.35866891  0.44422686    -0.08100
C781        C  0.85313849  0.36537287  0.41067693    -0.09700
C782        C  0.85814539  0.41616409  0.34596301    -0.08100
C783        C  0.84809246  0.44760919  0.32332217    -0.09700
C784        C  0.91230720  0.35161476  0.35236631    -0.08100
C785        C  0.94455815  0.32761196  0.34268563    -0.09700
C786        C  0.59163326  0.41416567  0.59758599     0.47600
N787        N  0.55292535  0.42542098  0.54253957     0.06500
C788        C  0.54971641  0.10512739  0.92065175    -0.01400
H789        H  0.52804287  0.13316633  0.58156767     0.12000
C790        C  0.89332236  0.04699224  0.57641390    -0.01600
Co791      Co  0.58295374  0.00331111  0.49785570     0.74200
N792        N  0.54574872  0.07889520  0.54231080    -0.20900
Co793      Co  0.99768664  0.07862770  0.99786793     0.74100
C794        C  0.91105029  0.08583946  0.59760971     0.47700
N795        N  0.92451698  0.45061903  0.54306018     0.06100
N796        N  0.94981240  0.07457944  0.54256163     0.06200
N797        N  0.60534066  0.05340877  0.92004318    -0.41700
H798        H  0.63824839  0.47358689  0.58420429     0.12000
N799        N  0.57822680  0.04938060  0.54306872     0.06500
N800        N  0.94985346  0.07457912  0.95317517     0.06300
C801        C  0.91114245  0.08583668  0.89813005     0.47900
N802        N  0.95699484  0.42110309  0.54229251    -0.20300
C803        C  0.60945438  0.45300977  0.91930104    -0.01300
N804        N  0.55704756  0.39849706  0.57436500    -0.41500
N805        N  0.94572922  0.10150439  0.92135083    -0.41700
C806        C  0.59172577  0.41416311  0.89810505     0.47600
N807        N  0.57826724  0.04938149  0.95265530     0.06500
N808        N  0.95703516  0.42110475  0.95340442    -0.20400
N809        N  0.58312313  0.45699187  0.54276511    -0.20900
N810        N  0.92455768  0.45061979  0.95264677     0.06100
H811        H  0.97474123  0.36683731  0.91414471     0.12000
H812        H  0.86452686  0.02641511  0.91151227     0.12100
N813        N  0.54578888  0.07889686  0.95342303    -0.20900
N814        N  0.91961537  0.04300803  0.54278171    -0.20500
N815        N  0.55296647  0.42542085  0.95315438     0.06500
C816        C  0.58901556  0.08786315  0.59764665     0.47900
C817        C  0.95306837  0.39487439  0.57506568    -0.01800
N818        N  0.91965562  0.04300833  0.95294975    -0.20500
H819        H  0.86444933  0.02641696  0.58421727     0.12100
N820        N  0.60526972  0.05340632  0.57568174    -0.41700
H821        H  0.97466405  0.36683048  0.58153497     0.12000
C822        C  0.91377002  0.41214022  0.89806692     0.47700
C823        C  0.60938256  0.45301048  0.57639684    -0.01300
Co824      Co  0.50509301  0.42137105  0.49784750     0.73800
N825        N  0.89744537  0.44659439  0.57567374    -0.41500
C826        C  0.58910715  0.08786726  0.89808960     0.48000
N827        N  0.55711937  0.39849458  0.92132390    -0.41500
Co828      Co  0.91982825  0.49668893  0.99785974     0.73900
C829        C  0.89339392  0.04699147  0.91931929    -0.01800
C830        C  0.54964472  0.10512346  0.57509078    -0.01300
N831        N  0.58316375  0.45699237  0.95293426    -0.20900
N832        N  0.94565755  0.10150710  0.57439107    -0.41600
H833        H  0.52811979  0.13317364  0.91418349     0.12000
C834        C  0.95314011  0.39487814  0.92062272    -0.01800
Cl835      Cl  0.50139104  0.99999916  0.49785772    -0.44800
C836        C  0.91367832  0.41213627  0.59762781     0.47800
H837        H  0.63832820  0.47358654  0.91149690     0.12000
N838        N  0.89751641  0.44659669  0.92003222    -0.41500
C839        C  0.88215090  0.38429553  0.87501728     0.02700
C840        C  0.88203926  0.38429425  0.62067536     0.02700
C841        C  0.79410644  0.35487383  0.52081533     0.07500
C842        C  0.79413077  0.35487339  0.97486999     0.07400
C843        C  0.75167366  0.35349892  0.95412275    -0.13100
C844        C  0.70919407  0.35437681  0.97488547     0.07500
C845        C  0.70916972  0.35437588  0.52078864     0.07400
C846        C  0.75162682  0.35349862  0.54155662    -0.13100
H847        H  0.75158420  0.35356171  0.57596965     0.09500
H848        H  0.75166822  0.35356223  0.91971046     0.09500
C849        C  0.88166296  0.11599854  0.87535465     0.02700
C850        C  0.84194786  0.47727853  0.78694716     0.07500
C851        C  0.84088450  0.02460925  0.78685094     0.07400
C852        C  0.83862706  0.04644150  0.74788549    -0.13100
C853        C  0.84082067  0.02460952  0.70890951     0.07500
C854        C  0.84188459  0.47727913  0.70879907     0.07400
C855        C  0.84085782  0.45532673  0.74787142    -0.13100
H856        H  0.84208395  0.41962003  0.74786541     0.09500
H857        H  0.83830757  0.08218510  0.74789039     0.09500
C858        C  0.88155043  0.11600004  0.62039606     0.02700
C859        C  0.79358471  0.14561293  0.52082959     0.07500
C860        C  0.79360902  0.14561389  0.97492719     0.07400
C861        C  0.75115274  0.14648676  0.95415888    -0.13100
C862        C  0.70867384  0.14511924  0.97490069     0.07500
C863        C  0.70864954  0.14511966  0.52084500     0.07400
C864        C  0.75110592  0.14648624  0.54159268    -0.13100
H865        H  0.75111132  0.14641984  0.57600553     0.09500
H866        H  0.75119538  0.14642077  0.91974568     0.09500
C867        C  0.62122568  0.38400377  0.87531829     0.02700
C868        C  0.52553291  0.29085745  0.83817524     0.07500
C869        C  0.97623510  0.29030591  0.83764654     0.07400
C870        C  0.95403918  0.24946091  0.83628392    -0.13100
C871        C  0.97739017  0.20913297  0.83819384     0.07500
C872        C  0.52669145  0.20968530  0.83766444     0.07400
C873        C  0.54888719  0.25052958  0.83628260    -0.13100
H874        H  0.58606548  0.25092653  0.83667406     0.09500
H875        H  0.91686072  0.24906568  0.83667638     0.09500
C876        C  0.62074510  0.11571103  0.87504246     0.02700
C877        C  0.66090863  0.02273316  0.78691659     0.07500
C878        C  0.66193269  0.47540211  0.78680556     0.07400
C879        C  0.66409914  0.45356874  0.74783001    -0.13100
C880        C  0.66186895  0.47540238  0.70886492     0.07500
C881        C  0.66084537  0.02273382  0.70876804     0.07400
C882        C  0.66195898  0.04468524  0.74784399    -0.13100
H883        H  0.66076275  0.08039331  0.74784998     0.09500
H884        H  0.66438789  0.41782471  0.74782516     0.09500
C885        C  0.62063348  0.11570977  0.62069584     0.02700
C886        C  0.62111308  0.38400537  0.62036189     0.02700
C887        C  0.97609172  0.29031471  0.65805154     0.07500
C888        C  0.52539000  0.29086642  0.65752169     0.07400
C889        C  0.54874268  0.25053976  0.65943141    -0.13100
C890        C  0.52654810  0.20969416  0.65806847     0.07500
C891        C  0.97724729  0.20914193  0.65754019     0.07400
C892        C  0.95389469  0.24947104  0.65943323    -0.13100
H893        H  0.91671617  0.24907561  0.65904196     0.09500
H894        H  0.58592095  0.25093656  0.65903888     0.09500
C895        C  0.55599842  0.32869070  0.65100992    -0.08100
C896        C  0.58852844  0.35227124  0.64136992    -0.09700
C897        C  0.59047680  0.14838877  0.64334672    -0.08100
C898        C  0.55822560  0.17239000  0.65302816    -0.09700
C899        C  0.64582997  0.41375583  0.65063467    -0.08100
C900        C  0.65603027  0.44529101  0.67296360    -0.09700
C901        C  0.65470076  0.05240383  0.67239372    -0.08100
C902        C  0.64464355  0.08384548  0.64975048    -0.09700
C903        C  0.65481399  0.05240168  0.82331108    -0.08100
C904        C  0.64477008  0.08384452  0.84597362    -0.09700
C905        C  0.55836476  0.17238554  0.84271901    -0.08100
C906        C  0.59060787  0.14838956  0.85240239    -0.09700
C907        C  0.64595825  0.41375509  0.84504476    -0.08100
C908        C  0.65614532  0.44529118  0.82271154    -0.09700
C909        C  0.55613609  0.32868483  0.84467334    -0.08100
C910        C  0.58865923  0.35226655  0.85430945    -0.09700
C911        C  0.67039971  0.14133433  0.55148611    -0.08100
C912        C  0.64964248  0.13463391  0.58503650    -0.09700
C913        C  0.67045584  0.14133298  0.94425444    -0.08100
C914        C  0.64972839  0.13463296  0.91070286    -0.09700
C915        C  0.91411741  0.14773651  0.64140499    -0.08100
C916        C  0.94664186  0.17131641  0.65104139    -0.09700
C917        C  0.85279459  0.13543032  0.58481708    -0.08100
C918        C  0.83192468  0.14218246  0.55135848    -0.09700
C919        C  0.85681217  0.08625290  0.65066959    -0.08100
C920        C  0.84661560  0.05472140  0.67300499    -0.09700
C921        C  0.91424822  0.14773182  0.85434661    -0.08100
C922        C  0.94677947  0.17131062  0.84470633    -0.09700
C923        C  0.85288153  0.13543313  0.91094132    -0.08100
C924        C  0.83198105  0.14218538  0.94440180    -0.09700
C925        C  0.84673069  0.05472166  0.82275079    -0.08100
C926        C  0.85694043  0.08625224  0.84508191    -0.09700
C927        C  0.64989714  0.36457071  0.58477552    -0.08100
C928        C  0.67079822  0.35781346  0.55131553    -0.09700
C929        C  0.64998417  0.36457352  0.91089699    -0.08100
C930        C  0.67085468  0.35781633  0.94435504    -0.09700
C931        C  0.84797909  0.44761119  0.67240395    -0.08100
C932        C  0.85801866  0.41616492  0.64974381    -0.09700
C933        C  0.94441897  0.32761627  0.65299809    -0.08100
C934        C  0.91217621  0.35161395  0.64331543    -0.09700
C935        C  0.85305262  0.36537378  0.58501460    -0.08100
C936        C  0.83232363  0.35867014  0.55146355    -0.09700
C937        C  0.83237978  0.35866885  0.94422686    -0.08100
C938        C  0.85313846  0.36537287  0.91067694    -0.09700
C939        C  0.85814531  0.41616403  0.84596300    -0.08100
C940        C  0.84809243  0.44760919  0.82332220    -0.09700
C941        C  0.91230724  0.35161478  0.85236635    -0.08100
C942        C  0.94455815  0.32761189  0.84268568    -0.09700
C943        C  0.59163317  0.91416561  0.09758598     0.47600
N944        N  0.55292530  0.92542103  0.04253954     0.06500
C945        C  0.54971646  0.60512732  0.42065169    -0.01400
H946        H  0.52804124  0.63316873  0.08156791     0.12000
C947        C  0.89332236  0.54699231  0.07641385    -0.01600
Co948      Co  0.58295369  0.50331117  0.99785572     0.74200
N949        N  0.54574838  0.57889561  0.04231081    -0.20900
Co950      Co  0.99768658  0.57862773  0.49786792     0.74100
C951        C  0.91105022  0.58583951  0.09760971     0.47700
N952        N  0.92451712  0.95061896  0.04306020     0.06100
N953        N  0.94981244  0.57457953  0.04256168     0.06200
N954        N  0.60534085  0.55340862  0.42004323    -0.41700
H955        H  0.63824791  0.97358642  0.08420414     0.12000
N956        N  0.57822659  0.54938080  0.04306879     0.06500
N957        N  0.94985340  0.57457914  0.45317519     0.06300
C958        C  0.91114255  0.58583667  0.39813000     0.47900
N959        N  0.95699504  0.92110289  0.04229252    -0.20300
C960        C  0.60945429  0.95300973  0.41930102    -0.01300
N961        N  0.55704748  0.89849701  0.07436504    -0.41500
N962        N  0.94572922  0.60150442  0.42135081    -0.41700
C963        C  0.59172587  0.91416312  0.39810502     0.47600
N964        N  0.57826733  0.54938138  0.45265543     0.06500
N965        N  0.95703544  0.92110430  0.45340433    -0.20400
N966        N  0.58312299  0.95699181  0.04276506    -0.20900
N967        N  0.92455780  0.95061960  0.45264668     0.06100
H968        H  0.97474300  0.86683485  0.41414442     0.12000
H969        H  0.86452744  0.52641542  0.41151213     0.12100
N970        N  0.54578914  0.57889652  0.45342323    -0.20900
N971        N  0.91961530  0.54300806  0.04278171    -0.20500
N972        N  0.55296643  0.92542074  0.45315432     0.06500
C973        C  0.58901516  0.58786360  0.09764657     0.47900
C974        C  0.95306839  0.89487421  0.07506551    -0.01800
N975        N  0.91965565  0.54300837  0.45294973    -0.20500
H976        H  0.86444894  0.52641677  0.08421721     0.12100
N977        N  0.60526931  0.55340656  0.07568182    -0.41700
H978        H  0.97466483  0.86682903  0.08153505     0.12000
C979        C  0.91377029  0.91213983  0.39806688     0.47700
C980        C  0.60938259  0.95301048  0.07639683    -0.01300
Co981      Co  0.50509305  0.92137107  0.99784748     0.73800
N982        N  0.89744564  0.94659426  0.07567375    -0.41500
C983        C  0.58910736  0.58786693  0.39808966     0.48000
N984        N  0.55711943  0.89849466  0.42132394    -0.41500
Co985      Co  0.91982829  0.99668882  0.49785973     0.73900
C986        C  0.89339398  0.54699144  0.41931916    -0.01800
C987        C  0.54964459  0.60512363  0.07509055    -0.01300
N988        N  0.58316381  0.95699244  0.45293421    -0.20900
N989        N  0.94565751  0.60150715  0.07439103    -0.41600
H990        H  0.52812151  0.63317136  0.41418380     0.12000
C991        C  0.95314013  0.89487794  0.42062289    -0.01800
Cl992      Cl  0.50139098  0.49999917  0.99785771    -0.44800
C993        C  0.91367856  0.91213602  0.09762775     0.47800
H994        H  0.63832856  0.97358690  0.41149671     0.12000
N995        N  0.89751672  0.94659649  0.42003219    -0.41500
C996        C  0.88215088  0.88429551  0.37501725     0.02700
C997        C  0.88203934  0.88429428  0.12067533     0.02700
C998        C  0.79410643  0.85487387  0.02081526     0.07500
C999        C  0.79413072  0.85487341  0.47487000     0.07400
C1000       C  0.75167362  0.85349899  0.45412277    -0.13100
C1001       C  0.70919402  0.85437678  0.47488544     0.07500
C1002       C  0.70916968  0.85437599  0.02078867     0.07400
C1003       C  0.75162682  0.85349876  0.04155664    -0.13100
H1004       H  0.75158425  0.85356185  0.07596927     0.09500
H1005       H  0.75166821  0.85356227  0.41971036     0.09500
C1006       C  0.88166298  0.61599850  0.37535461     0.02700
C1007       C  0.84194784  0.97727821  0.28694705     0.07500
C1008       C  0.84088447  0.52460924  0.28685095     0.07400
C1009       C  0.83862701  0.54644154  0.24788549    -0.13100
C1010       C  0.84082065  0.52460953  0.20890950     0.07500
C1011       C  0.84188455  0.97727889  0.20879919     0.07400
C1012       C  0.84085780  0.95532694  0.24787142    -0.13100
H1013       H  0.84208408  0.91961648  0.24786539     0.09500
H1014       H  0.83830747  0.58218496  0.24789035     0.09500
C1015       C  0.88155039  0.61600010  0.12039606     0.02700
C1016       C  0.79358474  0.64561296  0.02082973     0.07500
C1017       C  0.79360906  0.64561389  0.47492716     0.07400
C1018       C  0.75115275  0.64648665  0.45415882    -0.13100
C1019       C  0.70867382  0.64511933  0.47490061     0.07500
C1020       C  0.70864959  0.64511966  0.02084507     0.07400
C1021       C  0.75110596  0.64648628  0.04159272    -0.13100
H1022       H  0.75111130  0.64641993  0.07600641     0.09500
H1023       H  0.75119539  0.64642053  0.41974557     0.09500
C1024       C  0.62122568  0.88400374  0.37531826     0.02700
C1025       C  0.52553289  0.79085744  0.33817523     0.07500
C1026       C  0.97623510  0.79030597  0.33764651     0.07400
C1027       C  0.95403915  0.74946092  0.33628388    -0.13100
C1028       C  0.97739019  0.70913303  0.33819385     0.07500
C1029       C  0.52669142  0.70968529  0.33766442     0.07400
C1030       C  0.54888715  0.75052958  0.33628257    -0.13100
H1031       H  0.58606550  0.75092655  0.33667401     0.09500
H1032       H  0.91686092  0.74906561  0.33667630     0.09500
C1033       C  0.62074508  0.61571097  0.37504247     0.02700
C1034       C  0.66090860  0.52273320  0.28691658     0.07500
C1035       C  0.66193275  0.97540209  0.28680550     0.07400
C1036       C  0.66409937  0.95356876  0.24782995    -0.13100
C1037       C  0.66186897  0.97540244  0.20886490     0.07500
C1038       C  0.66084536  0.52273393  0.20876806     0.07400
C1039       C  0.66195888  0.54468523  0.24784400    -0.13100
H1040       H  0.66076256  0.58039416  0.24784999     0.09500
H1041       H  0.66438826  0.91782490  0.24782508     0.09500
C1042       C  0.62063333  0.61570981  0.12069578     0.02700
C1043       C  0.62111306  0.88400533  0.12036190     0.02700
C1044       C  0.97609169  0.79031483  0.15805152     0.07500
C1045       C  0.52538997  0.79086637  0.15752172     0.07400
C1046       C  0.54874266  0.75053973  0.15943163    -0.13100
C1047       C  0.52654814  0.70969409  0.15806852     0.07500
C1048       C  0.97724717  0.70914208  0.15754017     0.07400
C1049       C  0.95389468  0.74947119  0.15943319    -0.13100
H1050       H  0.91671556  0.74907567  0.15904190     0.09500
H1051       H  0.58592105  0.75093657  0.15903923     0.09500
C1052       C  0.55599841  0.82869061  0.15100988    -0.08100
C1053       C  0.58852839  0.85227120  0.14136991    -0.09700
C1054       C  0.59047684  0.64838884  0.14334672    -0.08100
C1055       C  0.55822563  0.67238998  0.15302820    -0.09700
C1056       C  0.64582991  0.91375585  0.15063466    -0.08100
C1057       C  0.65603027  0.94529105  0.17296356    -0.09700
C1058       C  0.65470072  0.55240385  0.17239372    -0.08100
C1059       C  0.64464344  0.58384549  0.14975042    -0.09700
C1060       C  0.65481397  0.55240164  0.32331108    -0.08100
C1061       C  0.64477009  0.58384450  0.34597358    -0.09700
C1062       C  0.55836473  0.67238551  0.34271899    -0.08100
C1063       C  0.59060783  0.64838949  0.35240240    -0.09700
C1064       C  0.64595823  0.91375506  0.34504471    -0.08100
C1065       C  0.65614534  0.94529111  0.32271144    -0.09700
C1066       C  0.55613602  0.82868481  0.34467335    -0.08100
C1067       C  0.58865915  0.85226654  0.35430943    -0.09700
C1068       C  0.67039974  0.64133429  0.05148611    -0.08100
C1069       C  0.64964247  0.63463387  0.08503650    -0.09700
C1070       C  0.67045589  0.64133304  0.44425434    -0.08100
C1071       C  0.64972839  0.63463298  0.41070280    -0.09700
C1072       C  0.91411736  0.64773658  0.14140500    -0.08100
C1073       C  0.94664175  0.67131657  0.15104139    -0.09700
C1074       C  0.85279455  0.63543039  0.08481711    -0.08100
C1075       C  0.83192466  0.64218253  0.05135854    -0.09700
C1076       C  0.85681216  0.58625292  0.15066959    -0.08100
C1077       C  0.84661559  0.55472139  0.17300496    -0.09700
C1078       C  0.91424825  0.64773186  0.35434656    -0.08100
C1079       C  0.94677950  0.67131069  0.34470631    -0.09700
C1080       C  0.85288157  0.63543309  0.41094133    -0.08100
C1081       C  0.83198109  0.64218530  0.44440181    -0.09700
C1082       C  0.84673066  0.55472165  0.32275074    -0.08100
C1083       C  0.85694043  0.58625221  0.34508186    -0.09700
C1084       C  0.64989714  0.86457079  0.08477553    -0.08100
C1085       C  0.67079821  0.85781357  0.05131557    -0.09700
C1086       C  0.64998416  0.86457347  0.41089696    -0.08100
C1087       C  0.67085464  0.85781628  0.44435502    -0.09700
C1088       C  0.84797909  0.94761127  0.17240394    -0.08100
C1089       C  0.85801873  0.91616499  0.14974377    -0.09700
C1090       C  0.94441904  0.82761643  0.15299809    -0.08100
C1091       C  0.91217623  0.85161404  0.14331546    -0.09700
C1092       C  0.85305262  0.86537383  0.08501461    -0.08100
C1093       C  0.83232362  0.85867020  0.05146355    -0.09700
C1094       C  0.83237975  0.85866888  0.44422684    -0.08100
C1095       C  0.85313845  0.86537285  0.41067690    -0.09700
C1096       C  0.85814534  0.91616408  0.34596302    -0.08100
C1097       C  0.84809242  0.94760918  0.32332213    -0.09700
C1098       C  0.91230714  0.85161475  0.35236631    -0.08100
C1099       C  0.94455809  0.82761194  0.34268563    -0.09700
C1100       C  0.59163328  0.91416565  0.59758600     0.47600
N1101       N  0.55292535  0.92542098  0.54253957     0.06500
C1102       C  0.54971644  0.60512728  0.92065170    -0.01400
H1103       H  0.52804296  0.63316618  0.58156773     0.12000
C1104       C  0.89332230  0.54699227  0.57641392    -0.01600
Co1105     Co  0.58295368  0.50331107  0.49785570     0.74200
N1106       N  0.54574872  0.57889519  0.54231079    -0.20900
Co1107     Co  0.99768665  0.57862773  0.99786791     0.74100
C1108       C  0.91105026  0.58583945  0.59760974     0.47700
N1109       N  0.92451706  0.95061905  0.54306017     0.06100
N1110       N  0.94981235  0.57457943  0.54256165     0.06200
N1111       N  0.60534085  0.55340858  0.92004322    -0.41700
H1112       H  0.63824853  0.97358693  0.58420430     0.12000
N1113       N  0.57822683  0.54938062  0.54306871     0.06500
N1114       N  0.94985342  0.57457915  0.95317519     0.06300
C1115       C  0.91114251  0.58583671  0.89813002     0.47900
N1116       N  0.95699482  0.92110313  0.54229251    -0.20300
C1117       C  0.60945433  0.95300974  0.91930103    -0.01300
N1118       N  0.55704759  0.89849703  0.57436497    -0.41500
N1119       N  0.94572918  0.60150443  0.92135082    -0.41700
C1120       C  0.59172581  0.91416308  0.89810504     0.47600
N1121       N  0.57826731  0.54938131  0.95265537     0.06500
N1122       N  0.95703514  0.92110474  0.95340441    -0.20400
N1123       N  0.58312315  0.95699188  0.54276512    -0.20900
N1124       N  0.92455765  0.95061977  0.95264676     0.06100
H1125       H  0.97474121  0.86683730  0.91414470     0.12000
H1126       H  0.86452752  0.52641549  0.91151232     0.12100
N1127       N  0.54578907  0.57889653  0.95342314    -0.20900
N1128       N  0.91961528  0.54300805  0.54278172    -0.20500
N1129       N  0.55296648  0.92542079  0.95315436     0.06500
C1130       C  0.58901560  0.58786311  0.59764665     0.47900
C1131       C  0.95306836  0.89487431  0.57506570    -0.01800
N1132       N  0.91965570  0.54300838  0.95294976    -0.20500
H1133       H  0.86444923  0.52641697  0.58421731     0.12100
N1134       N  0.60526972  0.55340629  0.57568175    -0.41700
H1135       H  0.97466365  0.86683079  0.58153493     0.12000
C1136       C  0.91376997  0.91214019  0.89806693     0.47700
C1137       C  0.60938258  0.95301046  0.57639683    -0.01300
Co1138     Co  0.50509307  0.92137107  0.49784745     0.73800
N1139       N  0.89744538  0.94659439  0.57567373    -0.41500
C1140       C  0.58910734  0.58786696  0.89808965     0.48000
N1141       N  0.55711941  0.89849457  0.92132392    -0.41500
Co1142     Co  0.91982825  0.99668882  0.99785978     0.73900
C1143       C  0.89339399  0.54699145  0.91931921    -0.01800
C1144       C  0.54964478  0.60512340  0.57509079    -0.01300
N1145       N  0.58316377  0.95699240  0.95293422    -0.20900
N1146       N  0.94565753  0.60150708  0.57439111    -0.41600
H1147       H  0.52812102  0.63317197  0.91418373     0.12000
C1148       C  0.95314007  0.89487812  0.92062272    -0.01800
Cl1149     Cl  0.50139101  0.49999917  0.49785773    -0.44800
C1150       C  0.91367831  0.91213631  0.59762779     0.47800
H1151       H  0.63832839  0.97358678  0.91149678     0.12000
N1152       N  0.89751637  0.94659667  0.92003223    -0.41500
C1153       C  0.88215085  0.88429551  0.87501728     0.02700
C1154       C  0.88203924  0.88429429  0.62067533     0.02700
C1155       C  0.79410645  0.85487381  0.52081532     0.07500
C1156       C  0.79413067  0.85487336  0.97486998     0.07400
C1157       C  0.75167358  0.85349888  0.95412275    -0.13100
C1158       C  0.70919396  0.85437682  0.97488548     0.07500
C1159       C  0.70916972  0.85437587  0.52078867     0.07400
C1160       C  0.75162683  0.85349854  0.54155663    -0.13100
H1161       H  0.75158421  0.85356156  0.57596970     0.09500
H1162       H  0.75166824  0.85356211  0.91971045     0.09500
C1163       C  0.88166294  0.61599853  0.87535463     0.02700
C1164       C  0.84194784  0.97727842  0.78694713     0.07500
C1165       C  0.84088448  0.52460919  0.78685096     0.07400
C1166       C  0.83862695  0.54644154  0.74788549    -0.13100
C1167       C  0.84082069  0.52460941  0.70890948     0.07500
C1168       C  0.84188456  0.97727908  0.70879911     0.07400
C1169       C  0.84085778  0.95532680  0.74787143    -0.13100
H1170       H  0.84208392  0.91961891  0.74786543     0.09500
H1171       H  0.83830733  0.58218427  0.74789037     0.09500
C1172       C  0.88155041  0.61600006  0.62039606     0.02700
C1173       C  0.79358474  0.64561302  0.52082964     0.07500
C1174       C  0.79360904  0.64561387  0.97492718     0.07400
C1175       C  0.75115274  0.64648677  0.95415888    -0.13100
C1176       C  0.70867384  0.64511926  0.97490065     0.07500
C1177       C  0.70864954  0.64511978  0.52084496     0.07400
C1178       C  0.75110592  0.64648651  0.54159266    -0.13100
H1179       H  0.75111127  0.64642027  0.57600563     0.09500
H1180       H  0.75119535  0.64642076  0.91974549     0.09500
C1181       C  0.62122568  0.88400374  0.87531827     0.02700
C1182       C  0.52553291  0.79085743  0.83817524     0.07500
C1183       C  0.97623510  0.79030592  0.83764655     0.07400
C1184       C  0.95403914  0.74946090  0.83628392    -0.13100
C1185       C  0.97739016  0.70913296  0.83819385     0.07500
C1186       C  0.52669144  0.70968527  0.83766444     0.07400
C1187       C  0.54888717  0.75052955  0.83628259    -0.13100
H1188       H  0.58606557  0.75092649  0.83667406     0.09500
H1189       H  0.91686085  0.74906567  0.83667638     0.09500
C1190       C  0.62074511  0.61571099  0.87504248     0.02700
C1191       C  0.66090860  0.52273317  0.78691659     0.07500
C1192       C  0.66193273  0.97540211  0.78680555     0.07400
C1193       C  0.66409935  0.95356873  0.74783001    -0.13100
C1194       C  0.66186895  0.97540237  0.70886492     0.07500
C1195       C  0.66084545  0.52273383  0.70876804     0.07400
C1196       C  0.66195893  0.54468523  0.74784398    -0.13100
H1197       H  0.66076258  0.58039341  0.74784997     0.09500
H1198       H  0.66438823  0.91782472  0.74782517     0.09500
C1199       C  0.62063354  0.61570972  0.62069580     0.02700
C1200       C  0.62111313  0.88400536  0.62036190     0.02700
C1201       C  0.97609166  0.79031476  0.65805154     0.07500
C1202       C  0.52539025  0.79086643  0.65752169     0.07400
C1203       C  0.54874308  0.75053969  0.65943140    -0.13100
C1204       C  0.52654829  0.70969403  0.65806847     0.07500
C1205       C  0.97724723  0.70914202  0.65754019     0.07400
C1206       C  0.95389469  0.74947111  0.65943323    -0.13100
H1207       H  0.91671563  0.74907565  0.65904196     0.09500
H1208       H  0.58592043  0.75093645  0.65903890     0.09500
C1209       C  0.55599865  0.82869066  0.65100991    -0.08100
C1210       C  0.58852857  0.85227124  0.64136991    -0.09700
C1211       C  0.59047691  0.64838866  0.64334673    -0.08100
C1212       C  0.55822574  0.67238986  0.65302820    -0.09700
C1213       C  0.64582996  0.91375584  0.65063469    -0.08100
C1214       C  0.65603028  0.94529100  0.67296362    -0.09700
C1215       C  0.65470087  0.55240383  0.67239371    -0.08100
C1216       C  0.64464365  0.58384547  0.64975045    -0.09700
C1217       C  0.65481396  0.55240168  0.82331108    -0.08100
C1218       C  0.64477010  0.58384453  0.84597360    -0.09700
C1219       C  0.55836469  0.67238548  0.84271904    -0.08100
C1220       C  0.59060780  0.64838949  0.85240243    -0.09700
C1221       C  0.64595825  0.91375507  0.84504474    -0.08100
C1222       C  0.65614535  0.94529117  0.82271153    -0.09700
C1223       C  0.55613609  0.82868480  0.84467334    -0.08100
C1224       C  0.58865922  0.85226653  0.85430944    -0.09700
C1225       C  0.67039973  0.64133439  0.55148608    -0.08100
C1226       C  0.64964252  0.63463390  0.58503646    -0.09700
C1227       C  0.67045586  0.64133301  0.94425441    -0.08100
C1228       C  0.64972838  0.63463296  0.91070286    -0.09700
C1229       C  0.91411740  0.64773654  0.64140499    -0.08100
C1230       C  0.94664185  0.67131649  0.65104135    -0.09700
C1231       C  0.85279457  0.63543034  0.58481709    -0.08100
C1232       C  0.83192466  0.64218252  0.55135853    -0.09700
C1233       C  0.85681219  0.58625291  0.65066960    -0.08100
C1234       C  0.84661563  0.55472137  0.67300497    -0.09700
C1235       C  0.91424823  0.64773181  0.85434658    -0.08100
C1236       C  0.94677948  0.67131061  0.84470632    -0.09700
C1237       C  0.85288155  0.63543309  0.91094134    -0.08100
C1238       C  0.83198107  0.64218534  0.94440182    -0.09700
C1239       C  0.84673065  0.55472167  0.82275076    -0.08100
C1240       C  0.85694041  0.58625222  0.84508189    -0.09700
C1241       C  0.64989717  0.86457070  0.58477552    -0.08100
C1242       C  0.67079826  0.85781345  0.55131556    -0.09700
C1243       C  0.64998416  0.86457350  0.91089696    -0.08100
C1244       C  0.67085459  0.85781634  0.94435505    -0.09700
C1245       C  0.84797908  0.94761123  0.67240396    -0.08100
C1246       C  0.85801862  0.91616495  0.64974380    -0.09700
C1247       C  0.94441897  0.82761637  0.65299810    -0.08100
C1248       C  0.91217617  0.85161402  0.64331545    -0.09700
C1249       C  0.85305257  0.86537379  0.58501460    -0.08100
C1250       C  0.83232365  0.85867015  0.55146352    -0.09700
C1251       C  0.83237968  0.85866881  0.94422683    -0.08100
C1252       C  0.85313839  0.86537283  0.91067692    -0.09700
C1253       C  0.85814527  0.91616400  0.84596299    -0.08100
C1254       C  0.84809239  0.94760917  0.82332218    -0.09700
C1255       C  0.91230719  0.85161477  0.85236636    -0.08100
C1256       C  0.94455810  0.82761188  0.84268568    -0.09700
loop_ 
_geom_bond_atom_site_label_1 
_geom_bond_atom_site_label_2 
_geom_bond_distance 
_geom_bond_site_symmetry_2 
_ccdc_geom_bond_type 
C1           N19   1.339       .  A
C1           C38   1.456       .  S
C1          C101   1.450       .  S
N2           N19   1.304       .  A
N2           N24   1.307       .  A
N2          Co39   1.994   1_554  S
C3           N28   1.314       .  A
C3           C41   1.453       .  S
C3           H48   1.080       .  S
H4           C45   1.080       .  S
C5           N29   1.318       .  A
C5            C9   1.456       .  S
C5           H34   1.081       .  S
Co6          N14   2.008   1_556  S
Co6         N338   2.002   1_546  S
Co6         N517   2.002   1_545  S
Co6         N179   2.008       .  S
Co6         Cl50   2.388   1_545  S
N7           C45   1.314       .  A
N7           N14   1.306       .  A
N7         Co793   1.989   1_454  S
Co8          N15   1.994       .  S
Co8         N792   1.989       .  S
Co8         N168   1.994       .  S
Co8         N656   1.989       .  S
Co8        Cl835   2.396   1_545  S
C9           N47   1.339       .  A
C9           C73   1.450       .  S
N10          N17   1.306       .  A
N10          N40   1.307       .  A
N10        Co200   2.008   1_554  S
N11          N29   1.307       .  A
N11          N47   1.304       .  A
N11        Co165   1.994   1_554  S
N12          C41   1.344       .  A
N12          N22   1.307       .  A
H13          C38   1.081       .  S
N14          N35   1.307       .  A
N15          N33   1.307       .  A
N15          N20   1.304       .  A
C16          N20   1.339       .  A
C16          C44   1.456       .  S
C16          C64   1.450       .  S
N17          C32   1.314       .  A
N17        Co667   1.989   1_554  S
C18          N46   1.318       .  A
C18          C21   1.456       .  S
C18          H52   1.081       .  S
C21          N42   1.339       .  A
C21          C82   1.450       .  S
N22          N28   1.306       .  A
N22        Co163   2.008       .  S
N23          C49   1.314       .  A
N23          N25   1.306       .  A
N23        Co824   1.989       .  S
N24          C38   1.318       .  A
N24        Co320   2.002   1_554  S
N25          N53   1.307       .  A
N25         Co43   2.008       .  S
H26          C49   1.080       .  S
H27          C44   1.081       .  S
N28        Co636   1.989   1_455  S
N29        Co514   2.002   1_544  S
N30          N42   1.304       .  A
N30          N46   1.307       .  A
N30        Co196   1.994       .  S
C31          N35   1.344       .  A
C31          C45   1.453       .  S
C31         C100   1.453       .  S
C32          C51   1.453       .  S
C32          H36   1.080       .  S
N33          C44   1.318       .  A
N33        Co357   2.002   1_545  S
C37          N53   1.344       .  A
C37          C49   1.453       .  S
C37          C54   1.453       .  S
Co39        N645   1.989   1_456  S
Co39        N808   1.989   1_455  S
Co39        N187   1.994       .  S
Co39       Cl364   2.396       .  S
N40          C51   1.344       .  A
C41          C91   1.453       .  S
Co43        N167   2.008       .  S
Co43        N500   2.002       .  S
Co43        N347   2.002       .  S
Co43      Cl1149   2.388       .  S
N46        Co477   2.002       .  S
Cl50       Co793   2.396   1_465  S
Cl50       Co353   2.396       .  S
Cl50      Co1142   2.388   1_455  S
C51          C55   1.453       .  S
C54         C153   1.526       .  S
C54         C154   1.509       .  S
C54         C156   1.509       .  S
C55         C147   1.509       .  S
C55         C149   1.509       .  S
C55         C150   1.526       .  S
C56          C61   1.406       .  A
C56         C214   1.454   1_554  A
C56         C151   1.485       .  S
C57          C58   1.406       .  A
C57         C213   1.454       .  A
C57         C152   1.485       .  S
C58          H63   1.089       .  S
C58          C59   1.406       .  A
C59         C217   1.453       .  A
C59         C145   1.484       .  S
C60          C61   1.406       .  A
C60         C216   1.453   1_554  A
C60         C143   1.484       .  S
C61          H62   1.089       .  S
C64         C136   1.513       .  S
C64         C138   1.525       .  S
C64         C141   1.505       .  S
C65          C70   1.406       .  A
C65         C380   1.441       .  A
C65         C155   1.474       .  S
C66          C67   1.403       .  A
C66         C379   1.441   1_545  A
C66         C140   1.470       .  S
C67          H72   1.088       .  S
C67          C68   1.403       .  A
C68         C383   1.441   1_545  A
C68         C135   1.470       .  S
C69          C70   1.406       .  A
C69         C382   1.441       .  A
C69         C146   1.474       .  S
C70          H71   1.087       .  S
C73         C130   1.513       .  S
C73         C132   1.525       .  S
C73         C134   1.505       .  S
C74          C79   1.406       .  A
C74         C232   1.453   1_554  A
C74         C133   1.484       .  S
C75          C76   1.406       .  A
C75         C231   1.453       .  A
C75         C139   1.484       .  S
C76          H81   1.089       .  S
C76          C77   1.406       .  A
C77         C235   1.454       .  A
C77         C128   1.485       .  S
C78          C79   1.406       .  A
C78         C234   1.454   1_554  A
C78         C126   1.485       .  S
C79          H80   1.089       .  S
C82         C122   1.505       .  S
C82         C125   1.513       .  S
C82         C144   1.525       .  S
C83          C88   1.405       .  A
C83         C712   1.442   1_455  A
C83         C124   1.475       .  S
C84          C85   1.405       .  A
C84         C711   1.442       .  A
C84         C157   1.472       .  S
C85          H90   1.088       .  S
C85          C86   1.405       .  A
C86         C715   1.442       .  A
C86         C137   1.475       .  S
C87          C88   1.405       .  A
C87         C714   1.442   1_455  A
C87         C120   1.472       .  S
C88          H89   1.088       .  S
C91         C119   1.509       .  S
C91         C121   1.509       .  S
C91         C129   1.526       .  S
C92          C97   1.406       .  A
C92         C407   1.441   1_545  A
C92         C118   1.474       .  S
C93          C94   1.403       .  A
C93         C406   1.441       .  A
C93         C123   1.470       .  S
C94          H99   1.088       .  S
C94          C95   1.403       .  A
C95         C410   1.441       .  A
C95         C115   1.470       .  S
C96          C97   1.406       .  A
C96         C409   1.441   1_545  A
C96         C116   1.474       .  S
C97          H98   1.087       .  S
C100        C112   1.509       .  S
C100        C117   1.509       .  S
C100        C127   1.526       .  S
C101        C111   1.513       .  S
C101        C114   1.505       .  S
C101        C142   1.525       .  S
C102        C107   1.405       .  A
C102        C731   1.442       .  A
C102        C148   1.472       .  S
C103        C104   1.405       .  A
C103        C730   1.442   1_455  A
C103        C110   1.475       .  S
C104        H109   1.088       .  S
C104        C105   1.405       .  A
C105        C734   1.442   1_455  A
C105        C113   1.472       .  S
C106        C107   1.405       .  A
C106        C733   1.442       .  A
C106        C131   1.475       .  S
C107        H108   1.088       .  S
C110        C111   1.232       .  T
C112        C113   1.230       .  T
C114        C115   1.229       .  T
C116        C117   1.231       .  T
C118        C119   1.231       .  T
C120        C121   1.230       .  T
C122        C123   1.229       .  T
C124        C125   1.232       .  T
C126        C127   1.240       .  T
C128        C129   1.240       .  T
C130        C131   1.232       .  T
C132        C133   1.240       .  T
C134        C135   1.229       .  T
C136        C137   1.232       .  T
C138        C139   1.240       .  T
C140        C141   1.229       .  T
C142        C143   1.240       .  T
C144        C145   1.240       .  T
C146        C147   1.231       .  T
C148        C149   1.230       .  T
C150        C151   1.240       .  T
C152        C153   1.240       .  T
C154        C155   1.231       .  T
C156        C157   1.230       .  T
C158        N176   1.339       .  A
C158        C195   1.456       .  S
C158        C258   1.450       .  S
N159        N176   1.304       .  A
N159        N181   1.307       .  A
N159       Co196   1.994       .  S
C160        N185   1.314       .  A
C160        C198   1.453       .  S
C160        H205   1.080       .  S
H161        C202   1.080       .  S
C162        N186   1.318       .  A
C162        C166   1.456       .  S
C162        H191   1.081       .  S
Co163       N495   2.002   1_545  S
Co163       N171   2.008       .  S
Co163       N360   2.002   1_545  S
Co163      Cl207   2.388   1_545  S
N164        C202   1.314       .  A
N164        N171   1.306       .  A
N164       Co636   1.989   1_455  S
Co165       N635   1.989   1_556  S
Co165       N813   1.989       .  S
Co165       N172   1.994       .  S
Co165      Cl678   2.396   1_545  S
C166        N204   1.339       .  A
C166        C230   1.450       .  S
N167        N174   1.306       .  A
N167        N197   1.307       .  A
N168        N186   1.307       .  A
N168        N204   1.304       .  A
N169        C198   1.344       .  A
N169        N179   1.307       .  A
H170        C195   1.081       .  S
N171        N192   1.307       .  A
N172        N190   1.307       .  A
N172        N177   1.304       .  A
C173        N177   1.339       .  A
C173        C201   1.456       .  S
C173        C221   1.450       .  S
N174        C189   1.314       .  A
N174       Co824   1.989       .  S
C175        N203   1.318       .  A
C175        C178   1.456       .  S
C175        H209   1.081       .  S
C178        N199   1.339       .  A
C178        C239   1.450       .  S
N179        N185   1.306       .  A
N180        C206   1.314       .  A
N180        N182   1.306       .  A
N180       Co667   1.989       .  S
N181        C195   1.318       .  A
N181       Co477   2.002       .  S
N182        N210   1.307       .  A
N182       Co200   2.008       .  S
H183        C206   1.080       .  S
H184        C201   1.081       .  S
N185       Co793   1.989   1_455  S
N186       Co357   2.002   1_545  S
N187        N199   1.304       .  A
N187        N203   1.307       .  A
C188        N192   1.344       .  A
C188        C202   1.453       .  S
C188        C257   1.453       .  S
C189        C208   1.453       .  S
C189        H193   1.080       .  S
N190        C201   1.318       .  A
N190       Co514   2.002   1_545  S
C194        N210   1.344       .  A
C194        C206   1.453       .  S
C194        C211   1.453       .  S
Co196       N802   1.989   1_455  S
Co196       N651   1.989   1_455  S
Co196      Cl521   2.396       .  S
N197        C208   1.344       .  A
C198        C248   1.453       .  S
Co200       N343   2.002   1_556  S
Co200       N504   2.002       .  S
Co200      Cl992   2.388       .  S
N203       Co320   2.002       .  S
Cl207      Co636   2.396   1_465  S
Cl207      Co510   2.396       .  S
Cl207      Co985   2.388   1_455  S
C208        C212   1.453       .  S
C211        C310   1.526       .  S
C211        C311   1.509       .  S
C211        C313   1.509       .  S
C212        C304   1.509       .  S
C212        C306   1.509       .  S
C212        C307   1.526       .  S
C213        C218   1.406       .  A
C213        C308   1.485       .  S
C214        C215   1.406       .  A
C214        C309   1.485       .  S
C215        H220   1.089       .  S
C215        C216   1.406       .  A
C216        C302   1.484       .  S
C217        C218   1.406       .  A
C217        C300   1.484       .  S
C218        H219   1.089       .  S
C221        C293   1.513       .  S
C221        C295   1.525       .  S
C221        C298   1.505       .  S
C222        C537   1.441       .  A
C222        C227   1.406       .  A
C222        C312   1.474       .  S
C223        C536   1.441   1_545  A
C223        C224   1.403       .  A
C223        C297   1.470       .  S
C224        H229   1.088       .  S
C224        C225   1.403       .  A
C225        C540   1.441   1_545  A
C225        C292   1.470       .  S
C226        C539   1.441       .  A
C226        C227   1.406       .  A
C226        C303   1.474       .  S
C227        H228   1.087       .  S
C230        C287   1.513       .  S
C230        C289   1.525       .  S
C230        C291   1.505       .  S
C231        C236   1.406       .  A
C231        C290   1.484       .  S
C232        C233   1.406       .  A
C232        C296   1.484       .  S
C233        H238   1.089       .  S
C233        C234   1.406       .  A
C234        C285   1.485       .  S
C235        C236   1.406       .  A
C235        C283   1.485       .  S
C236        H237   1.089       .  S
C239        C279   1.505       .  S
C239        C282   1.513       .  S
C239        C301   1.525       .  S
C240        C869   1.442   1_455  A
C240        C245   1.405       .  A
C240        C281   1.475       .  S
C241        C868   1.442       .  A
C241        C242   1.405       .  A
C241        C314   1.472       .  S
C242        H247   1.088       .  S
C242        C243   1.405       .  A
C243        C872   1.442       .  A
C243        C294   1.475       .  S
C244        C871   1.442   1_455  A
C244        C245   1.405       .  A
C244        C277   1.472       .  S
C245        H246   1.088       .  S
C248        C276   1.509       .  S
C248        C278   1.509       .  S
C248        C286   1.526       .  S
C249        C564   1.441   1_545  A
C249        C254   1.406       .  A
C249        C275   1.474       .  S
C250        C563   1.441       .  A
C250        C251   1.403       .  A
C250        C280   1.470       .  S
C251        H256   1.088       .  S
C251        C252   1.403       .  A
C252        C567   1.441       .  A
C252        C272   1.470       .  S
C253        C566   1.441   1_545  A
C253        C254   1.406       .  A
C253        C273   1.474       .  S
C254        H255   1.087       .  S
C257        C269   1.509       .  S
C257        C274   1.509       .  S
C257        C284   1.526       .  S
C258        C268   1.513       .  S
C258        C271   1.505       .  S
C258        C299   1.525       .  S
C259        C888   1.442       .  A
C259        C264   1.405       .  A
C259        C305   1.472       .  S
C260        C887   1.442   1_455  A
C260        C261   1.405       .  A
C260        C267   1.475       .  S
C261        H266   1.088       .  S
C261        C262   1.405       .  A
C262        C891   1.442   1_455  A
C262        C270   1.472       .  S
C263        C890   1.442       .  A
C263        C264   1.405       .  A
C263        C288   1.475       .  S
C264        H265   1.088       .  S
C267        C268   1.232       .  T
C269        C270   1.230       .  T
C271        C272   1.229       .  T
C273        C274   1.231       .  T
C275        C276   1.231       .  T
C277        C278   1.230       .  T
C279        C280   1.229       .  T
C281        C282   1.232       .  T
C283        C284   1.240       .  T
C285        C286   1.240       .  T
C287        C288   1.232       .  T
C289        C290   1.240       .  T
C291        C292   1.229       .  T
C293        C294   1.232       .  T
C295        C296   1.240       .  T
C297        C298   1.229       .  T
C299        C300   1.240       .  T
C301        C302   1.240       .  T
C303        C304   1.231       .  T
C305        C306   1.230       .  T
C307        C308   1.240       .  T
C309        C310   1.240       .  T
C311        C312   1.231       .  T
C313        C314   1.230       .  T
C315        N333   1.339       .  A
C315        C352   1.456       .  S
C315        C415   1.450       .  S
N316        N333   1.304       .  A
N316        N338   1.307       .  A
N316       Co353   1.994   1_554  S
C317        N342   1.314       .  A
C317        C355   1.453       .  S
C317        H362   1.080       .  S
H318        C359   1.080       .  S
C319        N343   1.318       .  A
C319        C323   1.456       .  S
C319        H348   1.081       .  S
Co320       N328   2.008   1_556  S
Co320       N493   2.008       .  S
Co320      Cl364   2.388       .  S
N321        C359   1.314       .  A
N321        N328   1.306       .  A
N321      Co1107   1.989   1_454  S
Co322      N1106   1.989       .  S
Co322       N482   1.994       .  S
Co322       N970   1.989       .  S
Co322       N329   1.994       .  S
Co322     Cl1149   2.396       .  S
C323        N361   1.339       .  A
C323        C387   1.450       .  S
N324        N331   1.306       .  A
N324        N354   1.307       .  A
N324       Co514   2.008   1_554  S
N325        N343   1.307       .  A
N325        N361   1.304       .  A
N325       Co479   1.994   1_554  S
N326        C355   1.344       .  A
N326        N336   1.307       .  A
H327        C352   1.081       .  S
N328        N349   1.307       .  A
N329        N347   1.307       .  A
N329        N334   1.304       .  A
C330        N334   1.339       .  A
C330        C358   1.456       .  S
C330        C378   1.450       .  S
N331        C346   1.314       .  A
N331       Co981   1.989   1_554  S
C332        N360   1.318       .  A
C332        C335   1.456       .  S
C332        H366   1.081       .  S
C335        N356   1.339       .  A
C335        C396   1.450       .  S
N336        N342   1.306       .  A
N336       Co477   2.008       .  S
N337        C363   1.314       .  A
N337        N339   1.306       .  A
N337      Co1138   1.989       .  S
N338        C352   1.318       .  A
N339        N367   1.307       .  A
N339       Co357   2.008       .  S
H340        C363   1.080       .  S
H341        C358   1.081       .  S
N342       Co950   1.989   1_455  S
N344        N356   1.304       .  A
N344        N360   1.307       .  A
N344       Co510   1.994       .  S
C345        N349   1.344       .  A
C345        C359   1.453       .  S
C345        C414   1.453       .  S
C346        C365   1.453       .  S
C346        H350   1.080       .  S
N347        C358   1.318       .  A
C351        N367   1.344       .  A
C351        C363   1.453       .  S
C351        C368   1.453       .  S
Co353       N959   1.989   1_456  S
Co353      N1122   1.989   1_455  S
Co353       N501   1.994       .  S
N354        C365   1.344       .  A
C355        C405   1.453       .  S
Co357       N481   2.008       .  S
Co357      Cl835   2.388       .  S
Cl364     Co1107   2.396   1_455  S
Cl364      Co828   2.388   1_455  S
C365        C369   1.453       .  S
C368        C467   1.526       .  S
C368        C468   1.509       .  S
C368        C470   1.509       .  S
C369        C461   1.509       .  S
C369        C463   1.509       .  S
C369        C464   1.526       .  S
C370        C528   1.454   1_554  A
C370        C375   1.406       .  A
C370        C465   1.485       .  S
C371        C527   1.454       .  A
C371        C372   1.406       .  A
C371        C466   1.485       .  S
C372        H377   1.089       .  S
C372        C373   1.406       .  A
C373        C531   1.453       .  A
C373        C459   1.484       .  S
C374        C530   1.453   1_554  A
C374        C375   1.406       .  A
C374        C457   1.484       .  S
C375        H376   1.089       .  S
C378        C450   1.513       .  S
C378        C452   1.525       .  S
C378        C455   1.505       .  S
C379        C384   1.406       .  A
C379        C469   1.474       .  S
C380        C381   1.403       .  A
C380        C454   1.470       .  S
C381        H386   1.088       .  S
C381        C382   1.403       .  A
C382        C449   1.470       .  S
C383        C384   1.406       .  A
C383        C460   1.474       .  S
C384        H385   1.087       .  S
C387        C444   1.513       .  S
C387        C446   1.525       .  S
C387        C448   1.505       .  S
C388        C546   1.453   1_554  A
C388        C393   1.406       .  A
C388        C447   1.484       .  S
C389        C545   1.453       .  A
C389        C390   1.406       .  A
C389        C453   1.484       .  S
C390        H395   1.089       .  S
C390        C391   1.406       .  A
C391        C549   1.454       .  A
C391        C442   1.485       .  S
C392        C548   1.454   1_554  A
C392        C393   1.406       .  A
C392        C440   1.485       .  S
C393        H394   1.089       .  S
C396        C436   1.505       .  S
C396        C439   1.513       .  S
C396        C458   1.525       .  S
C397       C1026   1.442   1_455  A
C397        C402   1.405       .  A
C397        C438   1.475       .  S
C398       C1025   1.442       .  A
C398        C399   1.405       .  A
C398        C471   1.472       .  S
C399        H404   1.088       .  S
C399        C400   1.405       .  A
C400       C1029   1.442       .  A
C400        C451   1.475       .  S
C401       C1028   1.442   1_455  A
C401        C402   1.405       .  A
C401        C434   1.472       .  S
C402        H403   1.088       .  S
C405        C433   1.509       .  S
C405        C435   1.509       .  S
C405        C443   1.526       .  S
C406        C411   1.406       .  A
C406        C432   1.474       .  S
C407        C408   1.403       .  A
C407        C437   1.470       .  S
C408        H413   1.088       .  S
C408        C409   1.403       .  A
C409        C429   1.470       .  S
C410        C411   1.406       .  A
C410        C430   1.474       .  S
C411        H412   1.087       .  S
C414        C426   1.509       .  S
C414        C431   1.509       .  S
C414        C441   1.526       .  S
C415        C425   1.513       .  S
C415        C428   1.505       .  S
C415        C456   1.525       .  S
C416       C1045   1.442       .  A
C416        C421   1.405       .  A
C416        C462   1.472       .  S
C417       C1044   1.442   1_455  A
C417        C418   1.405       .  A
C417        C424   1.475       .  S
C418        H423   1.088       .  S
C418        C419   1.405       .  A
C419       C1048   1.442   1_455  A
C419        C427   1.472       .  S
C420       C1047   1.442       .  A
C420        C421   1.405       .  A
C420        C445   1.475       .  S
C421        H422   1.088       .  S
C424        C425   1.232       .  T
C426        C427   1.230       .  T
C428        C429   1.229       .  T
C430        C431   1.231       .  T
C432        C433   1.231       .  T
C434        C435   1.230       .  T
C436        C437   1.229       .  T
C438        C439   1.232       .  T
C440        C441   1.240       .  T
C442        C443   1.240       .  T
C444        C445   1.232       .  T
C446        C447   1.240       .  T
C448        C449   1.229       .  T
C450        C451   1.232       .  T
C452        C453   1.240       .  T
C454        C455   1.229       .  T
C456        C457   1.240       .  T
C458        C459   1.240       .  T
C460        C461   1.231       .  T
C462        C463   1.230       .  T
C464        C465   1.240       .  T
C466        C467   1.240       .  T
C468        C469   1.231       .  T
C470        C471   1.230       .  T
C472        N490   1.339       .  A
C472        C509   1.456       .  S
C472        C572   1.450       .  S
N473        N490   1.304       .  A
N473        N495   1.307       .  A
N473       Co510   1.994       .  S
C474        N499   1.314       .  A
C474        C512   1.453       .  S
C474        H519   1.080       .  S
H475        C516   1.080       .  S
C476        N500   1.318       .  A
C476        C480   1.456       .  S
C476        H505   1.081       .  S
Co477       N485   2.008       .  S
Co477      Cl521   2.388       .  S
N478        C516   1.314       .  A
N478        N485   1.306       .  A
N478       Co950   1.989   1_455  S
Co479       N949   1.989   1_556  S
Co479      N1127   1.989       .  S
Co479       N486   1.994       .  S
Co479      Cl992   2.396       .  S
C480        N518   1.339       .  A
C480        C544   1.450       .  S
N481        N488   1.306       .  A
N481        N511   1.307       .  A
N482        N500   1.307       .  A
N482        N518   1.304       .  A
N483        C512   1.344       .  A
N483        N493   1.307       .  A
H484        C509   1.081       .  S
N485        N506   1.307       .  A
N486        N504   1.307       .  A
N486        N491   1.304       .  A
C487        N491   1.339       .  A
C487        C515   1.456       .  S
C487        C535   1.450       .  S
N488        C503   1.314       .  A
N488      Co1138   1.989       .  S
C489        N517   1.318       .  A
C489        C492   1.456       .  S
C489        H523   1.081       .  S
C492        N513   1.339       .  A
C492        C553   1.450       .  S
N493        N499   1.306       .  A
N494        C520   1.314       .  A
N494        N496   1.306       .  A
N494       Co981   1.989       .  S
N495        C509   1.318       .  A
N496        N524   1.307       .  A
N496       Co514   2.008       .  S
H497        C520   1.080       .  S
H498        C515   1.081       .  S
N499      Co1107   1.989   1_455  S
N501        N513   1.304       .  A
N501        N517   1.307       .  A
C502        N506   1.344       .  A
C502        C516   1.453       .  S
C502        C571   1.453       .  S
C503        C522   1.453       .  S
C503        H507   1.080       .  S
N504        C515   1.318       .  A
C508        N524   1.344       .  A
C508        C520   1.453       .  S
C508        C525   1.453       .  S
Co510      N1116   1.989   1_455  S
Co510       N965   1.989   1_455  S
N511        C522   1.344       .  A
C512        C562   1.453       .  S
Co514      Cl678   2.388       .  S
Cl521      Co950   2.396   1_455  S
Cl521      Co671   2.388   1_455  S
C522        C526   1.453       .  S
C525        C624   1.526       .  S
C525        C625   1.509       .  S
C525        C627   1.509       .  S
C526        C618   1.509       .  S
C526        C620   1.509       .  S
C526        C621   1.526       .  S
C527        C532   1.406       .  A
C527        C622   1.485       .  S
C528        C529   1.406       .  A
C528        C623   1.485       .  S
C529        H534   1.089       .  S
C529        C530   1.406       .  A
C530        C616   1.484       .  S
C531        C532   1.406       .  A
C531        C614   1.484       .  S
C532        H533   1.089       .  S
C535        C607   1.513       .  S
C535        C609   1.525       .  S
C535        C612   1.505       .  S
C536        C541   1.406       .  A
C536        C626   1.474       .  S
C537        C538   1.403       .  A
C537        C611   1.470       .  S
C538        H543   1.088       .  S
C538        C539   1.403       .  A
C539        C606   1.470       .  S
C540        C541   1.406       .  A
C540        C617   1.474       .  S
C541        H542   1.088       .  S
C544        C601   1.513       .  S
C544        C603   1.525       .  S
C544        C605   1.505       .  S
C545        C550   1.406       .  A
C545        C604   1.484       .  S
C546        C547   1.406       .  A
C546        C610   1.484       .  S
C547        H552   1.089       .  S
C547        C548   1.406       .  A
C548        C599   1.485       .  S
C549        C550   1.406       .  A
C549        C597   1.485       .  S
C550        H551   1.089       .  S
C553        C593   1.505       .  S
C553        C596   1.513       .  S
C553        C615   1.525       .  S
C554       C1183   1.442   1_455  A
C554        C559   1.405       .  A
C554        C595   1.475       .  S
C555       C1182   1.442       .  A
C555        C556   1.405       .  A
C555        C628   1.472       .  S
C556        H561   1.088       .  S
C556        C557   1.405       .  A
C557       C1186   1.442       .  A
C557        C608   1.475       .  S
C558       C1185   1.442   1_455  A
C558        C559   1.405       .  A
C558        C591   1.472       .  S
C559        H560   1.088       .  S
C562        C590   1.509       .  S
C562        C592   1.509       .  S
C562        C600   1.526       .  S
C563        C568   1.406       .  A
C563        C589   1.474       .  S
C564        C565   1.403       .  A
C564        C594   1.470       .  S
C565        H570   1.088       .  S
C565        C566   1.403       .  A
C566        C586   1.470       .  S
C567        C568   1.406       .  A
C567        C587   1.474       .  S
C568        H569   1.087       .  S
C571        C583   1.509       .  S
C571        C588   1.509       .  S
C571        C598   1.526       .  S
C572        C582   1.513       .  S
C572        C585   1.505       .  S
C572        C613   1.525       .  S
C573       C1202   1.442       .  A
C573        C578   1.405       .  A
C573        C619   1.472       .  S
C574       C1201   1.442   1_455  A
C574        C575   1.405       .  A
C574        C581   1.475       .  S
C575        H580   1.088       .  S
C575        C576   1.405       .  A
C576       C1205   1.442   1_455  A
C576        C584   1.472       .  S
C577       C1204   1.442       .  A
C577        C578   1.405       .  A
C577        C602   1.475       .  S
C578        H579   1.088       .  S
C581        C582   1.232       .  T
C583        C584   1.230       .  T
C585        C586   1.229       .  T
C587        C588   1.231       .  T
C589        C590   1.231       .  T
C591        C592   1.230       .  T
C593        C594   1.229       .  T
C595        C596   1.232       .  T
C597        C598   1.240       .  T
C599        C600   1.240       .  T
C601        C602   1.232       .  T
C603        C604   1.240       .  T
C605        C606   1.229       .  T
C607        C608   1.232       .  T
C609        C610   1.240       .  T
C611        C612   1.229       .  T
C613        C614   1.240       .  T
C615        C616   1.240       .  T
C617        C618   1.231       .  T
C619        C620   1.230       .  T
C621        C622   1.240       .  T
C623        C624   1.240       .  T
C625        C626   1.231       .  T
C627        C628   1.230       .  T
C629        N647   1.339       .  A
C629        C666   1.456       .  S
C629        C729   1.450       .  S
N630        N647   1.304       .  A
N630        N652   1.307       .  A
N630       Co667   1.994   1_554  S
C631        N656   1.314       .  A
C631        C669   1.453       .  S
C631        H676   1.080       .  S
H632        C673   1.080       .  S
C633        N657   1.318       .  A
C633        C637   1.456       .  S
C633        H662   1.081       .  S
Co634       N966   2.002   1_546  S
Co634       N642   2.008   1_556  S
Co634      N1145   2.002   1_545  S
Co634       N807   2.008       .  S
Co634      Cl678   2.388   1_545  S
N635        C673   1.314       .  A
N635        N642   1.306       .  A
Co636       N796   1.994       .  S
Co636       N643   1.994       .  S
C637        N675   1.339       .  A
C637        C701   1.450       .  S
N638        N645   1.306       .  A
N638        N668   1.307       .  A
N638       Co828   2.008   1_554  S
N639        N657   1.307       .  A
N639        N675   1.304       .  A
N639       Co793   1.994   1_554  S
N640        C669   1.344       .  A
N640        N650   1.307       .  A
H641        C666   1.081       .  S
N642        N663   1.307       .  A
N643        N661   1.307       .  A
N643        N648   1.304       .  A
C644        N648   1.339       .  A
C644        C672   1.456       .  S
C644        C692   1.450       .  S
N645        C660   1.314       .  A
C646        N674   1.318       .  A
C646        C649   1.456       .  S
C646        H680   1.081       .  S
C649        N670   1.339       .  A
C649        C710   1.450       .  S
N650        N656   1.306       .  A
N650       Co791   2.008       .  S
N651        C677   1.314       .  A
N651        N653   1.306       .  A
N652        C666   1.318       .  A
N652       Co948   2.002   1_554  S
N653        N681   1.307       .  A
N653       Co671   2.008       .  S
H654        C677   1.080       .  S
H655        C672   1.081       .  S
N657      Co1142   2.002   1_544  S
N658        N670   1.304       .  A
N658        N674   1.307       .  A
N658       Co824   1.994       .  S
C659        N663   1.344       .  A
C659        C673   1.453       .  S
C659        C728   1.453       .  S
C660        C679   1.453       .  S
C660        H664   1.080       .  S
N661        C672   1.318       .  A
N661       Co985   2.002   1_545  S
C665        N681   1.344       .  A
C665        C677   1.453       .  S
C665        C682   1.453       .  S
Co667       N815   1.994       .  S
Co667      Cl992   2.396       .  S
N668        C679   1.344       .  A
C669        C719   1.453       .  S
Co671       N795   2.008       .  S
Co671      N1128   2.002       .  S
Co671       N975   2.002       .  S
N674      Co1105   2.002       .  S
Cl678      Co981   2.396       .  S
C679        C683   1.453       .  S
C682        C781   1.526       .  S
C682        C782   1.509       .  S
C682        C784   1.509       .  S
C683        C775   1.509       .  S
C683        C777   1.509       .  S
C683        C778   1.526       .  S
C684        C842   1.454   1_554  A
C684        C689   1.406       .  A
C684        C779   1.485       .  S
C685        C841   1.454       .  A
C685        C686   1.406       .  A
C685        C780   1.485       .  S
C686        H691   1.089       .  S
C686        C687   1.406       .  A
C687        C845   1.453       .  A
C687        C773   1.484       .  S
C688        C844   1.453   1_554  A
C688        C689   1.406       .  A
C688        C771   1.484       .  S
C689        H690   1.089       .  S
C692        C764   1.513       .  S
C692        C766   1.525       .  S
C692        C769   1.505       .  S
C693       C1008   1.441       .  A
C693        C698   1.406       .  A
C693        C783   1.474       .  S
C694       C1007   1.441   1_545  A
C694        C695   1.403       .  A
C694        C768   1.470       .  S
C695        H700   1.088       .  S
C695        C696   1.403       .  A
C696       C1011   1.441   1_545  A
C696        C763   1.470       .  S
C697       C1010   1.441       .  A
C697        C698   1.406       .  A
C697        C774   1.474       .  S
C698        H699   1.087       .  S
C701        C758   1.513       .  S
C701        C760   1.525       .  S
C701        C762   1.505       .  S
C702        C860   1.453   1_554  A
C702        C707   1.406       .  A
C702        C761   1.484       .  S
C703        C859   1.453       .  A
C703        C704   1.406       .  A
C703        C767   1.484       .  S
C704        H709   1.089       .  S
C704        C705   1.406       .  A
C705        C863   1.454       .  A
C705        C756   1.485       .  S
C706        C862   1.454   1_554  A
C706        C707   1.406       .  A
C706        C754   1.485       .  S
C707        H708   1.089       .  S
C710        C750   1.505       .  S
C710        C753   1.513       .  S
C710        C772   1.525       .  S
C711        C716   1.405       .  A
C711        C752   1.475       .  S
C712        C713   1.405       .  A
C712        C785   1.472       .  S
C713        H718   1.088       .  S
C713        C714   1.405       .  A
C714        C765   1.475       .  S
C715        C716   1.405       .  A
C715        C748   1.472       .  S
C716        H717   1.088       .  S
C719        C747   1.509       .  S
C719        C749   1.509       .  S
C719        C757   1.526       .  S
C720       C1035   1.441   1_545  A
C720        C725   1.406       .  A
C720        C746   1.474       .  S
C721       C1034   1.441       .  A
C721        C722   1.403       .  A
C721        C751   1.470       .  S
C722        H727   1.088       .  S
C722        C723   1.403       .  A
C723       C1038   1.441       .  A
C723        C743   1.470       .  S
C724       C1037   1.441   1_545  A
C724        C725   1.406       .  A
C724        C744   1.474       .  S
C725        H726   1.087       .  S
C728        C740   1.509       .  S
C728        C745   1.509       .  S
C728        C755   1.526       .  S
C729        C739   1.513       .  S
C729        C742   1.505       .  S
C729        C770   1.525       .  S
C730        C735   1.405       .  A
C730        C776   1.472       .  S
C731        C732   1.405       .  A
C731        C738   1.475       .  S
C732        H737   1.088       .  S
C732        C733   1.405       .  A
C733        C741   1.472       .  S
C734        C735   1.405       .  A
C734        C759   1.475       .  S
C735        H736   1.088       .  S
C738        C739   1.232       .  T
C740        C741   1.230       .  T
C742        C743   1.229       .  T
C744        C745   1.231       .  T
C746        C747   1.231       .  T
C748        C749   1.230       .  T
C750        C751   1.229       .  T
C752        C753   1.232       .  T
C754        C755   1.240       .  T
C756        C757   1.240       .  T
C758        C759   1.232       .  T
C760        C761   1.240       .  T
C762        C763   1.229       .  T
C764        C765   1.232       .  T
C766        C767   1.240       .  T
C768        C769   1.229       .  T
C770        C771   1.240       .  T
C772        C773   1.240       .  T
C774        C775   1.231       .  T
C776        C777   1.230       .  T
C778        C779   1.240       .  T
C780        C781   1.240       .  T
C782        C783   1.231       .  T
C784        C785   1.230       .  T
C786        N804   1.339       .  A
C786        C823   1.456       .  S
C786        C886   1.450       .  S
N787        N804   1.304       .  A
N787        N809   1.307       .  A
N787       Co824   1.994       .  S
C788        N813   1.314       .  A
C788        C826   1.453       .  S
C788        H833   1.080       .  S
H789        C830   1.080       .  S
C790        N814   1.318       .  A
C790        C794   1.456       .  S
C790        H819   1.081       .  S
Co791      N1123   2.002   1_545  S
Co791       N799   2.008       .  S
Co791       N988   2.002   1_545  S
Co791      Cl835   2.388   1_545  S
N792        C830   1.314       .  A
N792        N799   1.306       .  A
Co793       N800   1.994       .  S
C794        N832   1.339       .  A
C794        C858   1.450       .  S
N795        N802   1.306       .  A
N795        N825   1.307       .  A
N796        N814   1.307       .  A
N796        N832   1.304       .  A
N797        C826   1.344       .  A
N797        N807   1.307       .  A
H798        C823   1.081       .  S
N799        N820   1.307       .  A
N800        N818   1.307       .  A
N800        N805   1.304       .  A
C801        N805   1.339       .  A
C801        C829   1.456       .  S
C801        C849   1.450       .  S
N802        C817   1.314       .  A
C803        N831   1.318       .  A
C803        C806   1.456       .  S
C803        H837   1.081       .  S
C806        N827   1.339       .  A
C806        C867   1.450       .  S
N807        N813   1.306       .  A
N808        C834   1.314       .  A
N808        N810   1.306       .  A
N809        C823   1.318       .  A
N809      Co1105   2.002       .  S
N810        N838   1.307       .  A
N810       Co828   2.008       .  S
H811        C834   1.080       .  S
H812        C829   1.081       .  S
N814       Co985   2.002   1_545  S
N815        N827   1.304       .  A
N815        N831   1.307       .  A
C816        N820   1.344       .  A
C816        C830   1.453       .  S
C816        C885   1.453       .  S
C817        C836   1.453       .  S
C817        H821   1.080       .  S
N818        C829   1.318       .  A
N818      Co1142   2.002   1_545  S
C822        N838   1.344       .  A
C822        C834   1.453       .  S
C822        C839   1.453       .  S
Co824     Cl1149   2.396       .  S
N825        C836   1.344       .  A
C826        C876   1.453       .  S
Co828       N971   2.002   1_556  S
Co828      N1132   2.002       .  S
N831       Co948   2.002       .  S
Cl835     Co1138   2.396       .  S
C836        C840   1.453       .  S
C839        C938   1.526       .  S
C839        C939   1.509       .  S
C839        C941   1.509       .  S
C840        C932   1.509       .  S
C840        C934   1.509       .  S
C840        C935   1.526       .  S
C841        C846   1.406       .  A
C841        C936   1.485       .  S
C842        C843   1.406       .  A
C842        C937   1.485       .  S
C843        H848   1.089       .  S
C843        C844   1.406       .  A
C844        C930   1.484       .  S
C845        C846   1.406       .  A
C845        C928   1.484       .  S
C846        H847   1.089       .  S
C849        C921   1.513       .  S
C849        C923   1.525       .  S
C849        C926   1.505       .  S
C850       C1165   1.441       .  A
C850        C855   1.406       .  A
C850        C940   1.474       .  S
C851       C1164   1.441   1_545  A
C851        C852   1.403       .  A
C851        C925   1.470       .  S
C852        H857   1.088       .  S
C852        C853   1.403       .  A
C853       C1168   1.441   1_545  A
C853        C920   1.470       .  S
C854       C1167   1.441       .  A
C854        C855   1.406       .  A
C854        C931   1.474       .  S
C855        H856   1.087       .  S
C858        C915   1.513       .  S
C858        C917   1.525       .  S
C858        C919   1.505       .  S
C859        C864   1.406       .  A
C859        C918   1.484       .  S
C860        C861   1.406       .  A
C860        C924   1.484       .  S
C861        H866   1.089       .  S
C861        C862   1.406       .  A
C862        C913   1.485       .  S
C863        C864   1.406       .  A
C863        C911   1.485       .  S
C864        H865   1.089       .  S
C867        C907   1.505       .  S
C867        C910   1.513       .  S
C867        C929   1.525       .  S
C868        C873   1.405       .  A
C868        C909   1.475       .  S
C869        C870   1.405       .  A
C869        C942   1.472       .  S
C870        H875   1.088       .  S
C870        C871   1.405       .  A
C871        C922   1.475       .  S
C872        C873   1.405       .  A
C872        C905   1.472       .  S
C873        H874   1.088       .  S
C876        C904   1.509       .  S
C876        C906   1.509       .  S
C876        C914   1.526       .  S
C877       C1192   1.441   1_545  A
C877        C882   1.406       .  A
C877        C903   1.474       .  S
C878       C1191   1.441       .  A
C878        C879   1.403       .  A
C878        C908   1.470       .  S
C879        H884   1.088       .  S
C879        C880   1.403       .  A
C880       C1195   1.441       .  A
C880        C900   1.470       .  S
C881       C1194   1.441   1_545  A
C881        C882   1.406       .  A
C881        C901   1.474       .  S
C882        H883   1.087       .  S
C885        C897   1.509       .  S
C885        C902   1.509       .  S
C885        C912   1.526       .  S
C886        C896   1.513       .  S
C886        C899   1.505       .  S
C886        C927   1.525       .  S
C887        C892   1.405       .  A
C887        C933   1.472       .  S
C888        C889   1.405       .  A
C888        C895   1.475       .  S
C889        H894   1.088       .  S
C889        C890   1.405       .  A
C890        C898   1.472       .  S
C891        C892   1.405       .  A
C891        C916   1.475       .  S
C892        H893   1.088       .  S
C895        C896   1.232       .  T
C897        C898   1.230       .  T
C899        C900   1.229       .  T
C901        C902   1.231       .  T
C903        C904   1.231       .  T
C905        C906   1.230       .  T
C907        C908   1.229       .  T
C909        C910   1.232       .  T
C911        C912   1.240       .  T
C913        C914   1.240       .  T
C915        C916   1.232       .  T
C917        C918   1.240       .  T
C919        C920   1.229       .  T
C921        C922   1.232       .  T
C923        C924   1.240       .  T
C925        C926   1.229       .  T
C927        C928   1.240       .  T
C929        C930   1.240       .  T
C931        C932   1.231       .  T
C933        C934   1.230       .  T
C935        C936   1.240       .  T
C937        C938   1.240       .  T
C939        C940   1.231       .  T
C941        C942   1.230       .  T
C943        N961   1.339       .  A
C943        C980   1.456       .  S
C943       C1043   1.450       .  S
N944        N961   1.304       .  A
N944        N966   1.307       .  A
N944       Co981   1.994   1_554  S
C945        N970   1.314       .  A
C945        C983   1.453       .  S
C945        H990   1.080       .  S
H946        C987   1.080       .  S
C947        N971   1.318       .  A
C947        C951   1.456       .  S
C947        H976   1.081       .  S
Co948       N956   2.008   1_556  S
Co948      N1121   2.008       .  S
Co948      Cl992   2.388       .  S
N949        C987   1.314       .  A
N949        N956   1.306       .  A
Co950      N1110   1.994       .  S
Co950       N957   1.994       .  S
C951        N989   1.339       .  A
C951       C1015   1.450       .  S
N952        N959   1.306       .  A
N952        N982   1.307       .  A
N952      Co1142   2.008   1_554  S
N953        N971   1.307       .  A
N953        N989   1.304       .  A
N953      Co1107   1.994   1_554  S
N954        C983   1.344       .  A
N954        N964   1.307       .  A
H955        C980   1.081       .  S
N956        N977   1.307       .  A
N957        N975   1.307       .  A
N957        N962   1.304       .  A
C958        N962   1.339       .  A
C958        C986   1.456       .  S
C958       C1006   1.450       .  S
N959        C974   1.314       .  A
C960        N988   1.318       .  A
C960        C963   1.456       .  S
C960        H994   1.081       .  S
C963        N984   1.339       .  A
C963       C1024   1.450       .  S
N964        N970   1.306       .  A
N964      Co1105   2.008       .  S
N965        C991   1.314       .  A
N965        N967   1.306       .  A
N966        C980   1.318       .  A
N967        N995   1.307       .  A
N967       Co985   2.008       .  S
H968        C991   1.080       .  S
H969        C986   1.081       .  S
N972        N984   1.304       .  A
N972        N988   1.307       .  A
N972      Co1138   1.994       .  S
C973        N977   1.344       .  A
C973        C987   1.453       .  S
C973       C1042   1.453       .  S
C974        C993   1.453       .  S
C974        H978   1.080       .  S
N975        C986   1.318       .  A
C979        N995   1.344       .  A
C979        C991   1.453       .  S
C979        C996   1.453       .  S
Co981      N1129   1.994       .  S
N982        C993   1.344       .  A
C983       C1033   1.453       .  S
Co985      N1109   2.008       .  S
C993        C997   1.453       .  S
C996       C1095   1.526       .  S
C996       C1096   1.509       .  S
C996       C1098   1.509       .  S
C997       C1089   1.509       .  S
C997       C1091   1.509       .  S
C997       C1092   1.526       .  S
C998       C1156   1.454   1_554  A
C998       C1003   1.406       .  A
C998       C1093   1.485       .  S
C999       C1155   1.454       .  A
C999       C1000   1.406       .  A
C999       C1094   1.485       .  S
C1000      H1005   1.089       .  S
C1000      C1001   1.406       .  A
C1001      C1159   1.453       .  A
C1001      C1087   1.484       .  S
C1002      C1158   1.453   1_554  A
C1002      C1003   1.406       .  A
C1002      C1085   1.484       .  S
C1003      H1004   1.089       .  S
C1006      C1078   1.513       .  S
C1006      C1080   1.525       .  S
C1006      C1083   1.505       .  S
C1007      C1012   1.406       .  A
C1007      C1097   1.474       .  S
C1008      C1009   1.403       .  A
C1008      C1082   1.470       .  S
C1009      H1014   1.088       .  S
C1009      C1010   1.403       .  A
C1010      C1077   1.470       .  S
C1011      C1012   1.406       .  A
C1011      C1088   1.474       .  S
C1012      H1013   1.088       .  S
C1015      C1072   1.513       .  S
C1015      C1074   1.525       .  S
C1015      C1076   1.505       .  S
C1016      C1174   1.453   1_554  A
C1016      C1021   1.406       .  A
C1016      C1075   1.484       .  S
C1017      C1173   1.453       .  A
C1017      C1018   1.406       .  A
C1017      C1081   1.484       .  S
C1018      H1023   1.089       .  S
C1018      C1019   1.406       .  A
C1019      C1177   1.454       .  A
C1019      C1070   1.485       .  S
C1020      C1176   1.454   1_554  A
C1020      C1021   1.406       .  A
C1020      C1068   1.485       .  S
C1021      H1022   1.089       .  S
C1024      C1064   1.505       .  S
C1024      C1067   1.513       .  S
C1024      C1086   1.525       .  S
C1025      C1030   1.405       .  A
C1025      C1066   1.475       .  S
C1026      C1027   1.405       .  A
C1026      C1099   1.472       .  S
C1027      H1032   1.088       .  S
C1027      C1028   1.405       .  A
C1028      C1079   1.475       .  S
C1029      C1030   1.405       .  A
C1029      C1062   1.472       .  S
C1030      H1031   1.088       .  S
C1033      C1061   1.509       .  S
C1033      C1063   1.509       .  S
C1033      C1071   1.526       .  S
C1034      C1039   1.406       .  A
C1034      C1060   1.474       .  S
C1035      C1036   1.403       .  A
C1035      C1065   1.470       .  S
C1036      H1041   1.088       .  S
C1036      C1037   1.403       .  A
C1037      C1057   1.470       .  S
C1038      C1039   1.406       .  A
C1038      C1058   1.474       .  S
C1039      H1040   1.087       .  S
C1042      C1054   1.509       .  S
C1042      C1059   1.509       .  S
C1042      C1069   1.526       .  S
C1043      C1053   1.513       .  S
C1043      C1056   1.505       .  S
C1043      C1084   1.525       .  S
C1044      C1049   1.405       .  A
C1044      C1090   1.472       .  S
C1045      C1046   1.405       .  A
C1045      C1052   1.475       .  S
C1046      H1051   1.088       .  S
C1046      C1047   1.405       .  A
C1047      C1055   1.472       .  S
C1048      C1049   1.405       .  A
C1048      C1073   1.475       .  S
C1049      H1050   1.088       .  S
C1052      C1053   1.232       .  T
C1054      C1055   1.230       .  T
C1056      C1057   1.229       .  T
C1058      C1059   1.231       .  T
C1060      C1061   1.231       .  T
C1062      C1063   1.230       .  T
C1064      C1065   1.229       .  T
C1066      C1067   1.232       .  T
C1068      C1069   1.240       .  T
C1070      C1071   1.240       .  T
C1072      C1073   1.232       .  T
C1074      C1075   1.240       .  T
C1076      C1077   1.229       .  T
C1078      C1079   1.232       .  T
C1080      C1081   1.240       .  T
C1082      C1083   1.229       .  T
C1084      C1085   1.240       .  T
C1086      C1087   1.240       .  T
C1088      C1089   1.231       .  T
C1090      C1091   1.230       .  T
C1092      C1093   1.240       .  T
C1094      C1095   1.240       .  T
C1096      C1097   1.231       .  T
C1098      C1099   1.230       .  T
C1100      N1118   1.339       .  A
C1100      C1137   1.456       .  S
C1100      C1200   1.450       .  S
N1101      N1118   1.304       .  A
N1101      N1123   1.307       .  A
N1101     Co1138   1.994       .  S
C1102      N1127   1.314       .  A
C1102      C1140   1.453       .  S
C1102      H1147   1.080       .  S
H1103      C1144   1.080       .  S
C1104      N1128   1.318       .  A
C1104      C1108   1.456       .  S
C1104      H1133   1.081       .  S
Co1105     N1113   2.008       .  S
Co1105    Cl1149   2.388       .  S
N1106      C1144   1.314       .  A
N1106      N1113   1.306       .  A
Co1107     N1114   1.994       .  S
C1108      N1146   1.339       .  A
C1108      C1172   1.450       .  S
N1109      N1116   1.306       .  A
N1109      N1139   1.307       .  A
N1110      N1128   1.307       .  A
N1110      N1146   1.304       .  A
N1111      C1140   1.344       .  A
N1111      N1121   1.307       .  A
H1112      C1137   1.081       .  S
N1113      N1134   1.307       .  A
N1114      N1132   1.307       .  A
N1114      N1119   1.304       .  A
C1115      N1119   1.339       .  A
C1115      C1143   1.456       .  S
C1115      C1163   1.450       .  S
N1116      C1131   1.314       .  A
C1117      N1145   1.318       .  A
C1117      C1120   1.456       .  S
C1117      H1151   1.081       .  S
C1120      N1141   1.339       .  A
C1120      C1181   1.450       .  S
N1121      N1127   1.306       .  A
N1122      C1148   1.314       .  A
N1122      N1124   1.306       .  A
N1123      C1137   1.318       .  A
N1124      N1152   1.307       .  A
N1124     Co1142   2.008       .  S
H1125      C1148   1.080       .  S
H1126      C1143   1.081       .  S
N1129      N1141   1.304       .  A
N1129      N1145   1.307       .  A
C1130      N1134   1.344       .  A
C1130      C1144   1.453       .  S
C1130      C1199   1.453       .  S
C1131      C1150   1.453       .  S
C1131      H1135   1.080       .  S
N1132      C1143   1.318       .  A
C1136      N1152   1.344       .  A
C1136      C1148   1.453       .  S
C1136      C1153   1.453       .  S
N1139      C1150   1.344       .  A
C1140      C1190   1.453       .  S
C1150      C1154   1.453       .  S
C1153      C1252   1.526       .  S
C1153      C1253   1.509       .  S
C1153      C1255   1.509       .  S
C1154      C1246   1.509       .  S
C1154      C1248   1.509       .  S
C1154      C1249   1.526       .  S
C1155      C1160   1.406       .  A
C1155      C1250   1.485       .  S
C1156      C1157   1.406       .  A
C1156      C1251   1.485       .  S
C1157      H1162   1.089       .  S
C1157      C1158   1.406       .  A
C1158      C1244   1.484       .  S
C1159      C1160   1.406       .  A
C1159      C1242   1.484       .  S
C1160      H1161   1.089       .  S
C1163      C1235   1.513       .  S
C1163      C1237   1.525       .  S
C1163      C1240   1.505       .  S
C1164      C1169   1.406       .  A
C1164      C1254   1.474       .  S
C1165      C1166   1.403       .  A
C1165      C1239   1.470       .  S
C1166      H1171   1.088       .  S
C1166      C1167   1.403       .  A
C1167      C1234   1.470       .  S
C1168      C1169   1.406       .  A
C1168      C1245   1.474       .  S
C1169      H1170   1.087       .  S
C1172      C1229   1.513       .  S
C1172      C1231   1.525       .  S
C1172      C1233   1.505       .  S
C1173      C1178   1.406       .  A
C1173      C1232   1.484       .  S
C1174      C1175   1.406       .  A
C1174      C1238   1.484       .  S
C1175      H1180   1.089       .  S
C1175      C1176   1.406       .  A
C1176      C1227   1.485       .  S
C1177      C1178   1.406       .  A
C1177      C1225   1.485       .  S
C1178      H1179   1.089       .  S
C1181      C1221   1.505       .  S
C1181      C1224   1.513       .  S
C1181      C1243   1.525       .  S
C1182      C1187   1.405       .  A
C1182      C1223   1.475       .  S
C1183      C1184   1.405       .  A
C1183      C1256   1.472       .  S
C1184      H1189   1.088       .  S
C1184      C1185   1.405       .  A
C1185      C1236   1.475       .  S
C1186      C1187   1.405       .  A
C1186      C1219   1.472       .  S
C1187      H1188   1.088       .  S
C1190      C1218   1.509       .  S
C1190      C1220   1.509       .  S
C1190      C1228   1.526       .  S
C1191      C1196   1.406       .  A
C1191      C1217   1.474       .  S
C1192      C1193   1.403       .  A
C1192      C1222   1.470       .  S
C1193      H1198   1.088       .  S
C1193      C1194   1.403       .  A
C1194      C1214   1.470       .  S
C1195      C1196   1.406       .  A
C1195      C1215   1.474       .  S
C1196      H1197   1.087       .  S
C1199      C1211   1.509       .  S
C1199      C1216   1.509       .  S
C1199      C1226   1.526       .  S
C1200      C1210   1.513       .  S
C1200      C1213   1.505       .  S
C1200      C1241   1.525       .  S
C1201      C1206   1.405       .  A
C1201      C1247   1.472       .  S
C1202      C1203   1.405       .  A
C1202      C1209   1.475       .  S
C1203      H1208   1.088       .  S
C1203      C1204   1.405       .  A
C1204      C1212   1.472       .  S
C1205      C1206   1.405       .  A
C1205      C1230   1.475       .  S
C1206      H1207   1.088       .  S
C1209      C1210   1.232       .  T
C1211      C1212   1.230       .  T
C1213      C1214   1.229       .  T
C1215      C1216   1.231       .  T
C1217      C1218   1.231       .  T
C1219      C1220   1.230       .  T
C1221      C1222   1.229       .  T
C1223      C1224   1.232       .  T
C1225      C1226   1.240       .  T
C1227      C1228   1.240       .  T
C1229      C1230   1.232       .  T
C1231      C1232   1.240       .  T
C1233      C1234   1.229       .  T
C1235      C1236   1.232       .  T
C1237      C1238   1.240       .  T
C1239      C1240   1.229       .  T
C1241      C1242   1.240       .  T
C1243      C1244   1.240       .  T
C1245      C1246   1.231       .  T
C1247      C1248   1.230       .  T
C1249      C1250   1.240       .  T
C1251      C1252   1.240       .  T
C1253      C1254   1.231       .  T
C1255      C1256   1.230       .  T
