geometry optimzed in LAMMPS
_audit_creation_date              2020-12-01 
_audit_creation_method            'lammps2cif' 
_symmetry_space_group_name_H-M    'P1' 
_symmetry_Int_Tables_number       1 
_symmetry_cell_setting            triclinic 
loop_ 
_symmetry_equiv_pos_as_xyz 
  x,y,z 
_cell_length_a                    67.29363841 
_cell_length_b                    66.96230671935335 
_cell_length_c                    45.9501682816295 
_cell_angle_alpha                 89.99318108464554 
_cell_angle_beta                  90.06471951816624 
_cell_angle_gamma                 89.98406624672592 
loop_ 
_atom_site_label 
_atom_site_type_symbol 
_atom_site_fract_x 
_atom_site_fract_y 
_atom_site_fract_z 
_atom_site_charge 
In1        In  0.39840297  0.74229160  0.32033478     1.36900
C2          C  0.37304543  0.77245461  0.32400894     0.78300
O3          O  0.38085169  0.73566207  0.28029121    -0.60100
O4          O  0.38602596  0.71205673  0.30996065    -0.51100
C5          C  0.43282105  0.74230796  0.29186207     0.71000
O6          O  0.42146064  0.75721438  0.29299380    -0.45900
C7          C  0.40483695  0.73826547  0.37715989     0.75700
O8          O  0.39045360  0.77455098  0.31424371    -0.57800
O9          O  0.39481062  0.72595692  0.36248290    -0.47900
O10         O  0.36890543  0.75498259  0.33200072    -0.54200
C11         C  0.37783210  0.71764074  0.28661083     0.85900
O12         O  0.42689921  0.72758792  0.30662504    -0.56100
O13         O  0.41259492  0.75189231  0.36211720    -0.59400
In14       In  0.59590282  0.73875447  0.15170214     1.36900
C15         C  0.62230613  0.76839386  0.14969511     0.78300
O16         O  0.61065516  0.72850837  0.19262821    -0.60100
O17         O  0.60984392  0.70839223  0.15721116    -0.51100
C18         C  0.56110293  0.73994238  0.17898233     0.71000
O19         O  0.57269243  0.75465729  0.17763948    -0.45900
C20         C  0.58676706  0.73590358  0.09564419     0.75700
O21         O  0.60685138  0.76907386  0.16511266    -0.57800
O22         O  0.59676159  0.72287782  0.10901147    -0.47900
O23         O  0.62417622  0.75251705  0.13534567    -0.54200
C24         C  0.61517856  0.71151057  0.18309910     0.85900
O25         O  0.56697131  0.72477620  0.16516261    -0.56100
O26         O  0.58076833  0.75004466  0.11145174    -0.59400
In27       In  0.76120629  0.10634208  0.32377395     1.36900
C28         C  0.73236820  0.13400067  0.32630768     0.78300
O29         O  0.74918180  0.09488872  0.36607253    -0.60100
O30         O  0.77910951  0.10461336  0.36518140    -0.51100
C31         C  0.75892377  0.07175619  0.29481965     0.71000
O32         O  0.74717703  0.08609517  0.29077501    -0.45900
C33         C  0.78916121  0.12414977  0.29211300     0.75700
O34         O  0.72885455  0.11564201  0.32287917    -0.57800
O35         O  0.79196833  0.11901420  0.31820149    -0.47900
O36         O  0.75055618  0.13802390  0.32911739    -0.54200
C37         C  0.76500295  0.09776549  0.38018049     0.85900
O38         O  0.77156442  0.07502812  0.31448788    -0.56100
O39         O  0.77213496  0.12002673  0.28236225    -0.59400
In40       In  0.75389076  0.90522287  0.15887805     1.36900
C41         C  0.72506003  0.87797332  0.15882882     0.78300
O42         O  0.73801031  0.91555678  0.11867112    -0.60100
O43         O  0.76833600  0.90736213  0.11513563    -0.51100
C44         C  0.75526843  0.94081589  0.18511181     0.71000
O45         O  0.74319871  0.92729128  0.19242258    -0.45900
C46         C  0.78312584  0.88655132  0.18712928     0.75700
O47         O  0.72224307  0.89585473  0.16645408    -0.57800
O48         O  0.78412817  0.89106681  0.16053559    -0.47900
O49         O  0.74279809  0.87410497  0.15204182    -0.54200
C50         C  0.75281842  0.91325787  0.10226318     0.85900
O51         O  0.76597391  0.93615484  0.16377392    -0.56100
O52         O  0.76709388  0.89174657  0.19915739    -0.59400
In53       In  0.59906083  0.27072884  0.33559526     1.36900
C54         C  0.62437044  0.23971781  0.33438165     0.78300
O55         O  0.61908288  0.28194029  0.30010779    -0.60100
O56         O  0.60831560  0.30292298  0.33039064    -0.51100
C57         C  0.56456444  0.27219691  0.30625266     0.71000
O58         O  0.57688726  0.25812689  0.30348050    -0.45900
C59         C  0.59167053  0.27168232  0.39266869     0.75700
O60         O  0.60752057  0.23940476  0.32232510    -0.57800
O61         O  0.60329907  0.28356015  0.37999578    -0.47900
O62         O  0.62790040  0.25580303  0.34769780    -0.54200
C63         C  0.61895910  0.29987810  0.30834931     0.85900
O64         O  0.56980697  0.28504534  0.32467027    -0.56100
O65         O  0.58323291  0.25943576  0.37585908    -0.59400
In66       In  0.40286984  0.26892193  0.16122897     1.36900
C67         C  0.37782832  0.23807406  0.16170219     0.78300
O68         O  0.38917705  0.27974323  0.20272901    -0.60100
O69         O  0.38476981  0.29686977  0.16469735    -0.51100
C70         C  0.43819424  0.27143229  0.18724654     0.71000
O71         O  0.42685020  0.25656903  0.18994230    -0.45900
C72         C  0.41043922  0.27115337  0.10457604     0.75700
O73         O  0.39543292  0.23680104  0.17094528    -0.57800
O74         O  0.40387051  0.28569916  0.11906023    -0.47900
O75         O  0.37326330  0.25510528  0.15214353    -0.54200
C76         C  0.38106725  0.29480496  0.19142308     0.85900
O77         O  0.43150012  0.28486743  0.17078451    -0.56100
O78         O  0.41415819  0.25583510  0.11953201    -0.59400
In79       In  0.23864980  0.90504079  0.31453453     1.36900
C80         C  0.26875612  0.87956131  0.31458145     0.78300
O81         O  0.25070614  0.92007074  0.35452328    -0.60100
O82         O  0.22611628  0.90064378  0.35924119    -0.51100
C83         C  0.23895715  0.93945238  0.28589917     0.71000
O84         O  0.25025119  0.92510461  0.27953695    -0.45900
C85         C  0.21007157  0.88578758  0.28593152     0.75700
O86         O  0.25109950  0.87439019  0.31947160    -0.57800
O87         O  0.20712785  0.89375145  0.31049005    -0.47900
O88         O  0.27103036  0.89788507  0.30933713    -0.54200
C89         C  0.23858841  0.91186435  0.37161474     0.85900
O90         O  0.22732095  0.93610117  0.30681893    -0.56100
O91         O  0.22720961  0.88873138  0.27596746    -0.59400
In92       In  0.24286649  0.10506139  0.14954254     1.36900
C93         C  0.27239816  0.13128311  0.15520757     0.78300
O94         O  0.25415005  0.09039263  0.10870159    -0.60100
O95         O  0.23041312  0.11087405  0.10491585    -0.51100
C96         C  0.24401762  0.06859764  0.17317649     0.71000
O97         O  0.25923261  0.07923959  0.16958708    -0.45900
C98         C  0.21320158  0.12261869  0.17874977     0.75700
O99         O  0.25911022  0.13279366  0.13601353    -0.57800
O100        O  0.23058392  0.12100846  0.18871580    -0.47900
O101        O  0.27059344  0.11625504  0.17146300    -0.54200
C102        C  0.24222762  0.09927788  0.09196310     0.85900
O103        O  0.22830340  0.07647809  0.16356297    -0.56100
O104        O  0.21108532  0.11498144  0.15390229    -0.59400
In105      In  0.39370658  0.74233928  0.65246439     1.36900
C106        C  0.36981808  0.77385122  0.65057196     0.78300
O107        O  0.40901326  0.74798330  0.60984941    -0.60100
O108        O  0.38414873  0.72857124  0.61042675    -0.51100
C109        C  0.42808944  0.74374047  0.68102360     0.71000
O110        O  0.41484895  0.75697240  0.68333277    -0.45900
C111        C  0.37586383  0.71543635  0.68531832     0.75700
O112        O  0.38846985  0.77537902  0.65172427    -0.57800
O113        O  0.38499132  0.71075401  0.66231829    -0.47900
O114        O  0.36354897  0.75613862  0.65045521    -0.54200
C115        C  0.39710363  0.73734395  0.59544010     0.85900
O116        O  0.42378578  0.72996939  0.66343276    -0.56100
O117        O  0.37663423  0.73367706  0.69177521    -0.59400
In118      In  0.59142571  0.74747593  0.82030613     1.36900
C119        C  0.61420754  0.77976273  0.81529715     0.78300
O120        O  0.58906720  0.76124196  0.86439110    -0.60100
O121        O  0.58505844  0.73001233  0.86113012    -0.51100
C122        C  0.55604483  0.74906490  0.79448495     0.71000
O123        O  0.57099759  0.75845793  0.78550560    -0.45900
C124        C  0.61275936  0.71800553  0.79652521     0.75700
O125        O  0.59551892  0.78062514  0.81578370    -0.57800
O126        O  0.61261626  0.72197168  0.82323825    -0.47900
O127        O  0.62099865  0.76224537  0.81683229    -0.54200
C128        C  0.58631914  0.74503340  0.87759071     0.85900
O129        O  0.55935694  0.73846754  0.81665079    -0.56100
O130        O  0.60143173  0.72908360  0.78173184    -0.59400
In131      In  0.75816761  0.10567533  0.65576767     1.36900
C132        C  0.72527101  0.12824935  0.65670417     0.78300
O133        O  0.76928620  0.13075561  0.68349630    -0.60100
O134        O  0.79056993  0.11027949  0.66818642    -0.51100
C135        C  0.75559376  0.07092618  0.68441635     0.71000
O136        O  0.75568118  0.08767630  0.69682739    -0.45900
C137        C  0.76422693  0.10028280  0.59890896     0.75700
O138        O  0.72651068  0.11172579  0.66970851    -0.57800
O139        O  0.77714554  0.10771607  0.61561034    -0.47900
O140        O  0.74080791  0.13284153  0.64294943    -0.54200
C141        C  0.78732493  0.12573008  0.68316189     0.85900
O142        O  0.75662940  0.07204955  0.65716161    -0.56100
O143        O  0.74842747  0.09502990  0.61147723    -0.59400
In144      In  0.75197710  0.90786161  0.82672096     1.36900
C145        C  0.71957092  0.88522836  0.82572350     0.78300
O146        O  0.78264979  0.89595544  0.81759026    -0.60100
O147        O  0.75966667  0.88898305  0.78809458    -0.51100
C148        C  0.75383454  0.94328325  0.80097052     0.71000
O149        O  0.73764721  0.93425851  0.80533157    -0.45900
C150        C  0.75547849  0.91475750  0.88376468     0.75700
O151        O  0.72136879  0.90062336  0.81011448    -0.57800
O152        O  0.76430775  0.90067647  0.87092817    -0.47900
O153        O  0.73437950  0.88161233  0.84162838    -0.54200
C154        C  0.77775401  0.88713082  0.79440057     0.85900
O155        O  0.76884746  0.93431077  0.81079764    -0.56100
O156        O  0.74525113  0.92557399  0.86709064    -0.59400
In157      In  0.59829568  0.26831977  0.66896482     1.36900
C158        C  0.62366081  0.23790650  0.67031223     0.78300
O159        O  0.58800586  0.25378664  0.62764416    -0.60100
O160        O  0.59843250  0.28355664  0.62531469    -0.51100
C161        C  0.56329582  0.26868579  0.69643641     0.71000
O162        O  0.57694512  0.25648336  0.70237510    -0.45900
C163        C  0.61719736  0.29728243  0.69756699     0.75700
O164        O  0.60533470  0.23588149  0.67518057    -0.57800
O165        O  0.61130783  0.29928036  0.67168832    -0.47900
O166        O  0.62898451  0.25556915  0.66498210    -0.54200
C167        C  0.59199687  0.26853604  0.61172256     0.85900
O168        O  0.56758341  0.28038762  0.67599083    -0.56100
O169        O  0.61330802  0.28044012  0.70842744    -0.59400
In170      In  0.39798104  0.27684445  0.82963645     1.36900
C171        C  0.37076296  0.24805399  0.83060229     0.78300
O172        O  0.41172304  0.26637199  0.87149834    -0.60100
O173        O  0.39613547  0.29383018  0.87149084    -0.51100
C174        C  0.43354457  0.27260686  0.80535358     0.71000
O175        O  0.42224466  0.25814978  0.81087609    -0.45900
C176        C  0.37857540  0.30336435  0.79677338     0.75700
O177        O  0.38448689  0.24870868  0.81200485    -0.57800
O178        O  0.38617691  0.30787878  0.82101038    -0.47900
O179        O  0.37098135  0.26212041  0.84876378    -0.54200
C180        C  0.40532880  0.28090879  0.88623714     0.85900
O181        O  0.42696410  0.28937824  0.81326716    -0.56100
O182        O  0.38170542  0.28562460  0.78913980    -0.59400
In183      In  0.23930602  0.91081639  0.64792695     1.36900
C184        C  0.26849423  0.88417380  0.64654225     0.78300
O185        O  0.22742949  0.89130593  0.68340979    -0.60100
O186        O  0.20667789  0.90640867  0.65708976    -0.51100
C187        C  0.24428717  0.94551756  0.67553196     0.71000
O188        O  0.25347164  0.92978941  0.68195419    -0.45900
C189        C  0.23746917  0.91616635  0.59061291     0.75700
O190        O  0.27083766  0.90148980  0.65681739    -0.57800
O191        O  0.22393937  0.90766204  0.60490598    -0.47900
O192        O  0.25117799  0.88057002  0.63752033    -0.54200
C193        C  0.20937089  0.89445854  0.67786532     0.85900
O194        O  0.23228718  0.94342442  0.65465700    -0.56100
O195        O  0.25171736  0.92244771  0.60591696    -0.59400
In196      In  0.24154719  0.10895850  0.81628787     1.36900
C197        C  0.26726332  0.13925836  0.81957005     0.78300
O198        O  0.22859114  0.12352856  0.77648811    -0.60100
O199        O  0.20955148  0.11842805  0.81206648    -0.51100
C200        C  0.24733337  0.07492958  0.78714543     0.71000
O201        O  0.25845431  0.08991049  0.78460380    -0.45900
C202        C  0.24079223  0.09919191  0.87265608     0.75700
O203        O  0.24954578  0.14045013  0.82821626    -0.57800
O204        O  0.22547656  0.10386390  0.85844046    -0.47900
O205        O  0.27170363  0.12242504  0.80906806    -0.54200
C206        C  0.21130785  0.12532169  0.78671550     0.85900
O207        O  0.23352649  0.07722260  0.80533023    -0.56100
O208        O  0.25645720  0.09898285  0.85763372    -0.59400
In209      In  0.73434602  0.60928570  0.33765978     1.36900
C210        C  0.76472593  0.63473181  0.33850093     0.78300
O211        O  0.72551551  0.63029912  0.30165833    -0.60100
O212        O  0.70266197  0.61495824  0.32360016    -0.51100
C213        C  0.73832631  0.57347960  0.31258870     0.71000
O214        O  0.75179364  0.58652883  0.31248257    -0.45900
C215        C  0.73026285  0.60332948  0.39470934     0.75700
O216        O  0.76487281  0.61867527  0.32416543    -0.57800
O217        O  0.71783396  0.61309670  0.37993791    -0.47900
O218        O  0.74891195  0.63764723  0.35270620    -0.54200
C219        C  0.70715005  0.62720631  0.30392787     0.85900
O220        O  0.72287816  0.57883442  0.32582136    -0.56100
O221        O  0.74449857  0.59632152  0.38015924    -0.59400
In222      In  0.74204052  0.40953460  0.17320420     1.36900
C223        C  0.77235889  0.38400568  0.16757041     0.78300
O224        O  0.73254058  0.39259114  0.21312045    -0.60100
O225        O  0.71024892  0.40211914  0.18404642    -0.51100
C226        C  0.74573013  0.44506456  0.19887492     0.71000
O227        O  0.75657235  0.43032189  0.20520347    -0.45900
C228        C  0.73601314  0.41429801  0.11643538     0.75700
O229        O  0.77465551  0.40196756  0.17502623    -0.57800
O230        O  0.72517051  0.40350443  0.13226696    -0.47900
O231        O  0.75450192  0.37919217  0.16323551    -0.54200
C232        C  0.71428196  0.39283640  0.20718218     0.85900
O233        O  0.73316523  0.44152096  0.17923631    -0.56100
O234        O  0.74947248  0.42351402  0.13004860    -0.59400
In235      In  0.89791719  0.77015007  0.32777837     1.36900
C236        C  0.87011059  0.74193213  0.33358560     0.78300
O237        O  0.91261048  0.75987665  0.36945366    -0.60100
O238        O  0.89678510  0.78713270  0.36982295    -0.51100
C239        C  0.93144590  0.76739525  0.29638352     0.71000
O240        O  0.91769269  0.75467085  0.29505116    -0.45900
C241        C  0.87874754  0.79806569  0.29715220     0.75700
O242        O  0.88781660  0.73801182  0.32645391    -0.57800
O243        O  0.88842489  0.80178740  0.31999541    -0.47900
O244        O  0.86693389  0.76018434  0.33801477    -0.54200
C245        C  0.90656038  0.77450369  0.38426314     0.85900
O246        O  0.92812582  0.78121761  0.31434888    -0.56100
O247        O  0.87965862  0.78002133  0.28936076    -0.59400
In248      In  0.09391182  0.76761082  0.15301309     1.36900
C249        C  0.11879225  0.73677211  0.15090298     0.78300
O250        O  0.08481426  0.75622896  0.10921737    -0.60100
O251        O  0.09244298  0.78677244  0.11314571    -0.51100
C252        C  0.05861435  0.76730101  0.17928664     0.71000
O253        O  0.07248181  0.75553103  0.18606610    -0.45900
C254        C  0.11367095  0.79443368  0.18448299     0.75700
O255        O  0.10026946  0.73466936  0.15338643    -0.57800
O256        O  0.11133631  0.79598825  0.15731898    -0.47900
O257        O  0.12451921  0.75465762  0.14980763    -0.54200
C258        C  0.08710912  0.77278115  0.09656337     0.85900
O259        O  0.06282257  0.77900131  0.15878235    -0.56100
O260        O  0.10548316  0.77926258  0.19530683    -0.59400
In261      In  0.09757545  0.23785558  0.31957312     1.36900
C262        C  0.12024166  0.27043940  0.32162844     0.78300
O263        O  0.07881656  0.24185290  0.35957773    -0.60100
O264        O  0.10552471  0.22571369  0.36345467    -0.51100
C265        C  0.06462504  0.24001482  0.28758831     0.71000
O266        O  0.07769785  0.25343167  0.28785183    -0.45900
C267        C  0.11745878  0.20972494  0.29033071     0.75700
O268        O  0.10154075  0.27142586  0.32116975    -0.57800
O269        O  0.10675959  0.20583615  0.31210574    -0.47900
O270        O  0.12703107  0.25294669  0.32239236    -0.54200
C271        C  0.09050487  0.23268742  0.37621432     0.85900
O272        O  0.06868088  0.22527482  0.30363415    -0.56100
O273        O  0.11727015  0.22791120  0.28317423    -0.59400
In274      In  0.89951504  0.24328898  0.15006715     1.36900
C275        C  0.87374092  0.27355661  0.15190620     0.78300
O276        O  0.91245974  0.25712071  0.11009507    -0.60100
O277        O  0.89792363  0.22928524  0.10555183    -0.51100
C278        C  0.93470797  0.24242146  0.17709937     0.71000
O279        O  0.92134289  0.25497274  0.18301190    -0.45900
C280        C  0.88027624  0.21402165  0.17767001     0.75700
O281        O  0.89204532  0.27584762  0.15665448    -0.57800
O282        O  0.88577485  0.21274237  0.15153361    -0.47900
O283        O  0.86880583  0.25592700  0.14581900    -0.54200
C284        C  0.90653329  0.24364523  0.09310029     0.85900
O285        O  0.92980384  0.23031988  0.15741733    -0.56100
O286        O  0.88525449  0.23017520  0.18981033    -0.59400
In287      In  0.25285077  0.40421815  0.31738242     1.36900
C288        C  0.22092379  0.38085835  0.31870573     0.78300
O289        O  0.26418109  0.38331909  0.28345179    -0.60100
O290        O  0.28519157  0.39692931  0.31125113    -0.51100
C291        C  0.25311506  0.43840663  0.28773940     0.71000
O292        O  0.24435664  0.42297214  0.27886525    -0.45900
C293        C  0.25542934  0.40957641  0.37442739     0.75700
O294        O  0.22003605  0.39894267  0.31111482    -0.57800
O295        O  0.26803792  0.39972259  0.36014712    -0.47900
O296        O  0.23815209  0.37497127  0.32527576    -0.54200
C297        C  0.28221735  0.38510583  0.29039511     0.85900
O298        O  0.26133968  0.43635754  0.31219646    -0.56100
O299        O  0.24160802  0.41700876  0.35934771    -0.59400
In300      In  0.25507520  0.60550552  0.15393201     1.36900
C301        C  0.22573302  0.63200864  0.15060505     0.78300
O302        O  0.26749567  0.62270681  0.19169310    -0.60100
O303        O  0.28656493  0.61653722  0.15649142    -0.51100
C304        C  0.25367503  0.57117045  0.18338508     0.71000
O305        O  0.24214933  0.58556569  0.18824931    -0.45900
C306        C  0.25494295  0.59754201  0.09728419     0.75700
O307        O  0.22338849  0.61468537  0.16083955    -0.57800
O308        O  0.26958980  0.60519743  0.11028088    -0.47900
O309        O  0.24330715  0.63581496  0.14312597    -0.54200
C310        C  0.28460225  0.62481358  0.18090730     0.85900
O311        O  0.26588097  0.57444284  0.16313644    -0.56100
O312        O  0.24083599  0.59273208  0.11382979    -0.59400
In313      In  0.73965436  0.60777600  0.67053510     1.36900
C314        C  0.77101831  0.63241116  0.66738302     0.78300
O315        O  0.74637487  0.59148179  0.62873820    -0.60100
O316        O  0.72498473  0.61453359  0.62793951    -0.51100
C317        C  0.74027055  0.57352266  0.70057314     0.71000
O318        O  0.75166156  0.58794698  0.70638520    -0.45900
C319        C  0.71090687  0.62623591  0.69950474     0.75700
O320        O  0.77274695  0.61376879  0.67044241    -0.57800
O321        O  0.70773137  0.61628276  0.67672557    -0.47900
O322        O  0.75324532  0.63818386  0.66570739    -0.54200
C323        C  0.73435572  0.60153888  0.61362905     0.85900
O324        O  0.72881595  0.57678324  0.67946630    -0.56100
O325        O  0.72877675  0.62631164  0.70776051    -0.59400
In326      In  0.73398152  0.40917550  0.84014241     1.36900
C327        C  0.76391782  0.38324949  0.83538728     0.78300
O328        O  0.74800819  0.41337337  0.88389907    -0.60100
O329        O  0.71684225  0.41571280  0.88129920    -0.51100
C330        C  0.73722648  0.44477542  0.81465364     0.71000
O331        O  0.72379688  0.44082837  0.83287547    -0.45900
C332        C  0.70530987  0.39028803  0.81108980     0.75700
O333        O  0.76608376  0.40184002  0.83231071    -0.57800
O334        O  0.70575898  0.39109163  0.83846302    -0.47900
O335        O  0.74641191  0.37809207  0.84159019    -0.54200
C336        C  0.73196459  0.41604592  0.89743750     0.85900
O337        O  0.74882747  0.43047926  0.80975345    -0.56100
O338        O  0.71927770  0.39946647  0.79873846    -0.59400
In339      In  0.89887069  0.77222028  0.66004484     1.36900
C340        C  0.87637560  0.73953923  0.65928420     0.78300
O341        O  0.87646980  0.78010059  0.69489443    -0.60100
O342        O  0.88531157  0.80272577  0.66587480    -0.51100
C343        C  0.93446622  0.77405622  0.68682971     0.71000
O344        O  0.92506976  0.75799778  0.68308051    -0.45900
C345        C  0.90620663  0.77583723  0.60331369     0.75700
O346        O  0.88782427  0.74371476  0.68021532    -0.57800
O347        O  0.89578880  0.78818261  0.61729049    -0.47900
O348        O  0.87654444  0.75208112  0.63888748    -0.54200
C349        C  0.87468219  0.79808879  0.68733954     0.85900
O350        O  0.92559469  0.78903401  0.67670219    -0.56100
O351        O  0.91337691  0.76190973  0.61856076    -0.59400
In352      In  0.10022607  0.77637093  0.82210561     1.36900
C353        C  0.12527415  0.74539307  0.82234118     0.78300
O354        O  0.11578149  0.78530594  0.78122109    -0.60100
O355        O  0.11041610  0.80785299  0.81210413    -0.51100
C356        C  0.06422669  0.77572846  0.79805258     0.71000
O357        O  0.07710574  0.76238845  0.79363268    -0.45900
C358        C  0.09474022  0.77948706  0.87910686     0.75700
O359        O  0.10784007  0.74437668  0.81241534    -0.57800
O360        O  0.10679248  0.79030497  0.86527563    -0.47900
O361        O  0.12963840  0.76217946  0.83297509    -0.54200
C362        C  0.11788844  0.80337959  0.78779660     0.85900
O363        O  0.06969093  0.78926767  0.81533144    -0.56100
O364        O  0.08506543  0.76740877  0.86351706    -0.59400
In365      In  0.25785475  0.40811410  0.65118741     1.36900
C366        C  0.22864008  0.38166544  0.65406020     0.78300
O367        O  0.24784293  0.42245207  0.60960561    -0.60100
O368        O  0.27003849  0.40024966  0.60701056    -0.51100
C369        C  0.25688031  0.44406665  0.67614615     0.71000
O370        O  0.24345439  0.43113413  0.67975621    -0.45900
C371        C  0.28675591  0.39266082  0.68386735     0.75700
O372        O  0.22547739  0.40018684  0.65568572    -0.57800
O373        O  0.28964441  0.39869717  0.65814558    -0.47900
O374        O  0.24656000  0.37683537  0.65090591    -0.54200
C375        C  0.25897316  0.41226031  0.59342763     0.85900
O376        O  0.27052900  0.43847535  0.65926837    -0.56100
O377        O  0.26914099  0.39482670  0.69253441    -0.59400
In378      In  0.25657324  0.60720634  0.82109356     1.36900
C379        C  0.22884462  0.63586640  0.81980830     0.78300
O380        O  0.24608624  0.59336300  0.86295738    -0.60100
O381        O  0.27061786  0.61311867  0.86430349    -0.51100
C382        C  0.25382866  0.57294214  0.79151369     0.71000
O383        O  0.24214298  0.58742218  0.78799319    -0.45900
C384        C  0.28723560  0.62189693  0.79209447     0.75700
O385        O  0.22448856  0.61753792  0.82024791    -0.57800
O386        O  0.28868694  0.61578406  0.81799854    -0.47900
O387        O  0.24720247  0.63916804  0.82018032    -0.54200
C388        C  0.25856359  0.60257324  0.87845433     0.85900
O389        O  0.26639947  0.57570819  0.81152171    -0.56100
O390        O  0.27018286  0.62006464  0.78108300    -0.59400
In391      In  0.09821675  0.24460060  0.65085803     1.36900
C392        C  0.12375805  0.27487795  0.64920871     0.78300
O393        O  0.10967185  0.21361545  0.65902762    -0.60100
O394        O  0.11343603  0.23518685  0.69202839    -0.51100
C395        C  0.06285681  0.24676452  0.67717068     0.71000
O396        O  0.07681297  0.25882558  0.68211268    -0.45900
C397        C  0.09214328  0.23927372  0.59414651     0.75700
O398        O  0.10533484  0.27718999  0.65249238    -0.57800
O399        O  0.08636802  0.25465418  0.60749890    -0.47900
O400        O  0.12896431  0.25696166  0.64564365    -0.54200
C401        C  0.11661046  0.21752785  0.68389850     0.85900
O402        O  0.06718131  0.23364232  0.65865617    -0.56100
O403        O  0.10102346  0.22673854  0.60988839    -0.59400
In404      In  0.89837186  0.25041654  0.81666156     1.36900
C405        C  0.87418845  0.28201414  0.81923175     0.78300
O406        O  0.87973555  0.24022743  0.77893569    -0.60100
O407        O  0.88940252  0.21829240  0.80845134    -0.51100
C408        C  0.93360721  0.25116776  0.78936088     0.71000
O409        O  0.92025084  0.26409625  0.78514768    -0.45900
C410        C  0.90458482  0.24760809  0.87396639     0.75700
O411        O  0.89104137  0.28277189  0.80729765    -0.57800
O412        O  0.89144902  0.23771744  0.86075225    -0.47900
O413        O  0.86987222  0.26517721  0.82963449    -0.54200
C414        C  0.87958342  0.22203997  0.78571527     0.85900
O415        O  0.92882485  0.23813884  0.80784706    -0.56100
O416        O  0.91496735  0.25855418  0.85764841    -0.59400
C417        C  0.00862160  0.23921342  0.70006299    -0.11200
C418        C  0.00738739  0.25234617  0.72368940     0.11400
C419        C  0.02435321  0.26327159  0.73241303    -0.03000
C420        C  0.04194695  0.26118985  0.71621809    -0.05700
C421        C  0.04333085  0.24806757  0.69235026    -0.16500
C422        C  0.02632012  0.23671319  0.68417240     0.02400
C423        C  0.98853792  0.25284620  0.74040868     0.12400
C424        C  0.02397918  0.27671777  0.75906824     0.63000
H425        H  0.05499920  0.26959966  0.72262040     0.12400
C426        C  0.02657320  0.22195254  0.65903849     0.55100
H427        H  0.99550549  0.23062821  0.69450928     0.08200
C428        C  0.97206688  0.26454979  0.73182944    -0.05600
C429        C  0.95463876  0.26382587  0.74879542    -0.06300
C430        C  0.95296242  0.25127469  0.77333390    -0.15900
C431        C  0.96952245  0.23913690  0.78126578    -0.01500
C432        C  0.98697965  0.24024699  0.76454249    -0.09100
C433        C  0.97279243  0.27728303  0.70446136     0.65200
H434        H  0.94195420  0.27280057  0.74249500     0.10700
C435        C  0.96918097  0.22514706  0.80727068     0.63600
H436        H  0.99972750  0.23109132  0.77001088     0.08000
F437        F  0.00818399  0.21317943  0.65465508    -0.19400
F438        F  0.04001061  0.20681457  0.66478829    -0.15700
F439        F  0.03177492  0.23166199  0.63358554    -0.19100
F440        F  0.01991806  0.26551452  0.78361383    -0.22500
F441        F  0.00950124  0.29119095  0.75591555    -0.24000
F442        F  0.04200052  0.28624546  0.76341451    -0.18000
F443        F  0.95502102  0.21045815  0.80309219    -0.20500
F444        F  0.96495643  0.23588278  0.83218633    -0.21600
F445        F  0.98727114  0.21570669  0.81149151    -0.18800
F446        F  0.95540540  0.28798681  0.70041983    -0.18900
F447        F  0.97551360  0.26518455  0.68041429    -0.22700
F448        F  0.98833393  0.29072282  0.70610229    -0.24400
C449        C  0.14968776  0.32451369  0.66439379    -0.11200
C450        C  0.16815160  0.32106134  0.65138181     0.11400
C451        C  0.17219302  0.30248724  0.63806974    -0.03000
C452        C  0.15702481  0.28809967  0.63711882    -0.05700
C453        C  0.13831202  0.29151948  0.64981025    -0.16500
C454        C  0.13460144  0.31000105  0.66409428     0.02400
C455        C  0.18306338  0.33724368  0.65230795     0.12400
C456        C  0.19262664  0.29767906  0.62583641     0.63000
H457        H  0.15984238  0.27384017  0.62681197     0.12400
C458        C  0.11517309  0.31437497  0.67969534     0.55100
H459        H  0.14725408  0.33879799  0.67485504     0.08200
C460        C  0.18305091  0.35291209  0.63162931    -0.05600
C461        C  0.19788882  0.36762062  0.63353501    -0.06300
C462        C  0.21267586  0.36672909  0.65499292    -0.15900
C463        C  0.21242463  0.35130137  0.67603379    -0.01500
C464        C  0.19735551  0.33683272  0.67449619    -0.09100
C465        C  0.16758218  0.35388186  0.60754167     0.65200
H466        H  0.19839927  0.37965782  0.61780523     0.10700
C467        C  0.22777057  0.35040606  0.70025808     0.63600
H468        H  0.19676712  0.32485617  0.69029915     0.08000
F469        F  0.09979605  0.31525814  0.65974446    -0.19400
F470        F  0.11571524  0.33243813  0.69433597    -0.15700
F471        F  0.11137105  0.29959380  0.69998900    -0.19100
F472        F  0.20629457  0.29694978  0.64829411    -0.22500
F473        F  0.19843101  0.31213822  0.60613596    -0.24000
F474        F  0.19289425  0.27943061  0.61168596    -0.18000
F475        F  0.22371265  0.33529341  0.71993100    -0.20500
F476        F  0.22794108  0.36832099  0.71524846    -0.21600
F477        F  0.24640713  0.34693062  0.68869211    -0.18800
F478        F  0.17090997  0.36976582  0.58889190    -0.18900
F479        F  0.14887475  0.35612015  0.61948731    -0.22700
F480        F  0.16801016  0.33652737  0.59126259    -0.24400
C481        C  0.27023781  0.49635784  0.70424747    -0.11200
C482        C  0.25462234  0.49970135  0.72375033     0.11400
C483        C  0.23918123  0.48550564  0.72620554    -0.03000
C484        C  0.24044153  0.46778747  0.70988080    -0.05700
C485        C  0.25652539  0.46385964  0.69112706    -0.16500
C486        C  0.27164210  0.47860929  0.68790749     0.02400
C487        C  0.25478123  0.51836675  0.74121822     0.12400
C488        C  0.22153029  0.48903321  0.74617544     0.63000
H489        H  0.22882552  0.45671939  0.71197734     0.12400
C490        C  0.28934835  0.47582861  0.66778523     0.55100
H491        H  0.28156168  0.50776074  0.70238333     0.08200
C492        C  0.26606257  0.52016911  0.76705900    -0.05600
C493        C  0.26495200  0.53808817  0.78296448    -0.06300
C494        C  0.25332097  0.55435094  0.77357896    -0.15900
C495        C  0.24253416  0.55264993  0.74695740    -0.01500
C496        C  0.24353992  0.53458693  0.73133338    -0.09100
C497        C  0.27943885  0.50332267  0.77748127     0.65200
H498        H  0.27341932  0.53955186  0.80293029     0.10700
C499        C  0.23027561  0.56971470  0.73450794     0.63600
H500        H  0.23544595  0.53285795  0.71106487     0.08000
F501        F  0.30056055  0.45968038  0.67694226    -0.19400
F502        F  0.30165878  0.49238913  0.66753458    -0.15700
F503        F  0.28283157  0.47274714  0.63957317    -0.19100
F504        F  0.21135567  0.50594925  0.73748152    -0.22500
F505        F  0.22801372  0.49157154  0.77448743    -0.24000
F506        F  0.20832902  0.47318334  0.74574764    -0.18000
F507        F  0.24222716  0.58628666  0.73039440    -0.20500
F508        F  0.21490857  0.57435681  0.75329229    -0.21600
F509        F  0.22192480  0.56488166  0.70787000    -0.18800
F510        F  0.28848228  0.50779819  0.80375725    -0.18900
F511        F  0.29421656  0.49989666  0.75721335    -0.22700
F512        F  0.26849933  0.48603808  0.78113526    -0.24400
C513        C  0.20254002  0.68604212  0.80955015    -0.11200
C514        C  0.18371259  0.68171071  0.82078247     0.11400
C515        C  0.17938790  0.66214878  0.83054002    -0.03000
C516        C  0.19451763  0.64762774  0.82966330    -0.05700
C517        C  0.21368647  0.65206739  0.81933887    -0.16500
C518        C  0.21776576  0.67164656  0.80879372     0.02400
C519        C  0.16877587  0.69804970  0.82177814     0.12400
C520        C  0.15885818  0.65669835  0.84172637     0.63000
H521        H  0.19148330  0.63263165  0.83734407     0.12400
C522        C  0.23788129  0.67746429  0.79634455     0.55100
H523        H  0.20524731  0.70105191  0.80164680     0.08200
C524        C  0.16893248  0.71274531  0.84391001    -0.05600
C525        C  0.15420643  0.72768471  0.84355277    -0.06300
C526        C  0.13964446  0.72852557  0.82160068    -0.15900
C527        C  0.13994470  0.71409579  0.79891856    -0.01500
C528        C  0.15458001  0.69906498  0.79951452    -0.09100
C529        C  0.18480447  0.71282936  0.86747113     0.65200
H530        H  0.15406015  0.73896750  0.86038135     0.10700
C531        C  0.12541861  0.71482432  0.77360855     0.63600
H532        H  0.15514677  0.68792439  0.78249577     0.08000
F533        F  0.25211298  0.67712793  0.81808142    -0.19400
F534        F  0.23769826  0.69650955  0.78461781    -0.15700
F535        F  0.24314809  0.66434414  0.77440239    -0.19100
F536        F  0.14510813  0.65854039  0.81951703    -0.22500
F537        F  0.15356584  0.66925577  0.86431026    -0.24000
F538        F  0.15812300  0.63725262  0.85189966    -0.18000
F539        F  0.12990273  0.70077911  0.75250263    -0.20500
F540        F  0.12601515  0.73346901  0.76064067    -0.21600
F541        F  0.10639400  0.71098087  0.78346049    -0.18800
F542        F  0.18137810  0.72749170  0.88810295    -0.18900
F543        F  0.20318721  0.71640069  0.85512603    -0.22700
F544        F  0.18523069  0.69459207  0.88156704    -0.24400
C545        C  0.98538621  0.79071752  0.71569848    -0.11200
C546        C  0.99032725  0.77449741  0.73351509     0.11400
C547        C  0.97692630  0.75837223  0.73640294    -0.03000
C548        C  0.95906734  0.75877725  0.72041891    -0.05700
C549        C  0.95395588  0.77499681  0.70237383    -0.16500
C550        C  0.96739644  0.79135777  0.69998384     0.02400
C551        C  0.00947446  0.77508697  0.74959261     0.12400
C552        C  0.98136023  0.74101387  0.75674192     0.63000
H553        H  0.94871791  0.74650036  0.72243591     0.12400
C554        C  0.96316260  0.80933531  0.68075882     0.55100
H555        H  0.99582888  0.80296899  0.71436158     0.08200
C556        C  0.02753086  0.76889839  0.73669632    -0.05600
C557        C  0.04490695  0.76913479  0.75365052    -0.06300
C558        C  0.04488899  0.77582458  0.78260955    -0.15900
C559        C  0.02682305  0.78237277  0.79539960    -0.01500
C560        C  0.00938654  0.78199083  0.77840641    -0.09100
C561        C  0.02852404  0.76240899  0.70505027     0.65200
H562        H  0.05886568  0.76444322  0.74412489     0.10700
C563        C  0.02563649  0.78884406  0.82704483     0.63600
H564        H  0.99537250  0.78686826  0.78756281     0.08000
F565        F  0.97895426  0.82258517  0.68018551    -0.19400
F566        F  0.94677812  0.81955213  0.69114837    -0.15700
F567        F  0.95967875  0.80311557  0.65250157    -0.19100
F568        F  0.98255650  0.74784065  0.78507949    -0.22500
F569        F  0.99920330  0.73216317  0.74930794    -0.24000
F570        F  0.96672018  0.72652157  0.75559649    -0.18000
F571        F  0.03669215  0.80598081  0.83134924    -0.20500
F572        F  0.03282607  0.77377077  0.84475664    -0.21600
F573        F  0.00628880  0.79291216  0.83542609    -0.18800
F574        F  0.04747364  0.75639183  0.69723318    -0.18900
F575        F  0.02315286  0.77816017  0.68726628    -0.22700
F576        F  0.01575487  0.74660165  0.70020019    -0.24400
C577        C  0.79505006  0.33616150  0.82344646    -0.11200
C578        C  0.81423274  0.34355343  0.82835155     0.11400
C579        C  0.81701296  0.36415768  0.83376503    -0.03000
C580        C  0.80015031  0.37654676  0.83557554    -0.05700
C581        C  0.78075355  0.36898561  0.83228824    -0.16500
C582        C  0.77813324  0.34841278  0.82563496     0.02400
C583        C  0.83096322  0.32907337  0.82744328     0.12400
C584        C  0.83762834  0.37295755  0.83794271     0.63000
H585        H  0.80202363  0.39229506  0.84016847     0.12400
C586        C  0.75775087  0.33924278  0.82066968     0.55100
H587        H  0.79345892  0.32042201  0.81853841     0.08200
C588        C  0.83481056  0.31587508  0.85086366    -0.05600
C589        C  0.84955540  0.30117745  0.84746140    -0.06300
C590        C  0.86040238  0.29922315  0.82151995    -0.15900
C591        C  0.85668820  0.31257514  0.79817738    -0.01500
C592        C  0.84187346  0.32727809  0.80156924    -0.09100
C593        C  0.82311623  0.31703032  0.87911666     0.65200
H594        H  0.85251762  0.29078800  0.86497748     0.10700
C595        C  0.86756143  0.31073545  0.76937611     0.63600
H596        H  0.83831537  0.33724026  0.78377755     0.08000
F597        F  0.74707158  0.33947202  0.84636322    -0.19400
F598        F  0.75901114  0.31959772  0.81145011    -0.15700
F599        F  0.74761318  0.34986298  0.79950954    -0.19100
F600        F  0.84901601  0.36965018  0.81340428    -0.22500
F601        F  0.84677861  0.36414703  0.86162474    -0.24000
F602        F  0.83695737  0.39336600  0.84272402    -0.18000
F603        F  0.86037390  0.32404552  0.74884364    -0.20500
F604        F  0.86526220  0.29163081  0.75840916    -0.21600
F605        F  0.88754490  0.31466392  0.77339689    -0.18800
F606        F  0.83007787  0.30358364  0.89962556    -0.18900
F607        F  0.80334158  0.31272575  0.87396776    -0.22700
F608        F  0.82458742  0.33598780  0.89080959    -0.24400
C609        C  0.82225681  0.65721893  0.67394133    -0.11200
C610        C  0.81812276  0.67623636  0.66278358     0.11400
C611        C  0.79888750  0.68057848  0.65209879    -0.03000
C612        C  0.78414107  0.66574409  0.65389046    -0.05700
C613        C  0.78801769  0.64670309  0.66564733    -0.16500
C614        C  0.80750761  0.64233073  0.67590109     0.02400
C615        C  0.83419134  0.69145908  0.66282462     0.12400
C616        C  0.79403766  0.70076497  0.63867389     0.63000
H617        H  0.76934258  0.66895248  0.64581367     0.12400
C618        C  0.81276014  0.62239079  0.68963175     0.55100
H619        H  0.83723528  0.65425636  0.68151142     0.08200
C620        C  0.83897063  0.70259755  0.68808251    -0.05600
C621        C  0.85341128  0.71767641  0.68603433    -0.06300
C622        C  0.86290520  0.72209069  0.65966272    -0.15900
C623        C  0.85878354  0.71033819  0.63465496    -0.01500
C624        C  0.84452084  0.69502530  0.63685200    -0.09100
C625        C  0.82857841  0.69886989  0.71690331     0.65200
H626        H  0.85694009  0.72668650  0.70496827     0.10700
C627        C  0.86965459  0.71353364  0.60605218     0.63600
H628        H  0.84092005  0.68593534  0.61803443     0.08000
F629        F  0.80024191  0.61865682  0.71286757    -0.19400
F630        F  0.83208715  0.62206371  0.69999701    -0.15700
F631        F  0.81093765  0.60733713  0.66920951    -0.19100
F632        F  0.80497369  0.70335706  0.61350940    -0.22500
F633        F  0.79858463  0.71593201  0.65797929    -0.24000
F634        F  0.77411324  0.70240625  0.63153027    -0.18000
F635        F  0.86503659  0.69889794  0.58585675    -0.20500
F636        F  0.88995800  0.71300800  0.61075611    -0.21600
F637        F  0.86447042  0.73176850  0.59416919    -0.18800
F638        F  0.83508517  0.71182063  0.73839003    -0.18900
F639        F  0.83231130  0.67960898  0.72621121    -0.22700
F640        F  0.80831719  0.70146052  0.71367689    -0.24400
C641        C  0.73425339  0.51892644  0.72320087    -0.11200
C642        C  0.73948393  0.51991142  0.75263531     0.11400
C643        C  0.74582572  0.53823725  0.76477581    -0.03000
C644        C  0.74606312  0.55534058  0.74691610    -0.05700
C645        C  0.74011163  0.55459573  0.71755555    -0.16500
C646        C  0.73426497  0.53597399  0.70534274     0.02400
C647        C  0.73874038  0.50118576  0.76982203     0.12400
C648        C  0.75222407  0.53964302  0.79644375     0.63000
H649        H  0.75064744  0.56954219  0.75593503     0.12400
C650        C  0.72842813  0.53380290  0.67355338     0.55100
H651        H  0.72991455  0.50456250  0.71441957     0.08200
C652        C  0.72073645  0.49365484  0.78128739    -0.05600
C653        C  0.72112023  0.47546132  0.79650249    -0.06300
C654        C  0.73868252  0.46432272  0.79964985    -0.15900
C655        C  0.75674385  0.47189424  0.78798840    -0.01500
C656        C  0.75635077  0.49027608  0.77318740    -0.09100
C657        C  0.70113476  0.50449487  0.77676356     0.65200
H658        H  0.70742707  0.46942227  0.80525947     0.10700
C659        C  0.77639390  0.46088562  0.79113836     0.63600
H660        H  0.76982643  0.49622943  0.76358730     0.08000
F661        F  0.72583005  0.51401157  0.66569444    -0.19400
F662        F  0.74317361  0.54168660  0.65603932    -0.15700
F663        F  0.71069840  0.54365288  0.66845868    -0.19100
F664        F  0.76852002  0.52750900  0.80125245    -0.22500
F665        F  0.73689033  0.53359355  0.81438747    -0.24000
F666        F  0.75740501  0.55893980  0.80411852    -0.18000
F667        F  0.77606968  0.44365672  0.77454692    -0.20500
F668        F  0.77967132  0.45605348  0.82002799    -0.21600
F669        F  0.79227961  0.47236738  0.78185382    -0.18800
F670        F  0.68563167  0.49512454  0.79109196    -0.18900
F671        F  0.69656554  0.50501128  0.74744348    -0.22700
F672        F  0.70245183  0.52381510  0.78713546    -0.24400
C673        C  0.23813603  0.59634501  0.01798349    -0.11200
C674        C  0.25655606  0.59613784  0.00382287     0.11400
C675        C  0.27428475  0.59523390  0.02030293    -0.03000
C676        C  0.27292442  0.59491982  0.05077222    -0.05700
C677        C  0.25451698  0.59528830  0.06517064    -0.16500
C678        C  0.23668313  0.59542558  0.04850343     0.02400
C679        C  0.25683104  0.59739822  0.97162748     0.12400
C680        C  0.29456503  0.59487476  0.00579931     0.63000
H681        H  0.28639078  0.59472201  0.06368127     0.12400
C682        C  0.21621543  0.59484149  0.06245661     0.55100
H683        H  0.22484746  0.59729466  0.00474728     0.08200
C684        C  0.25257658  0.58071547  0.95379095    -0.05600
C685        C  0.25355936  0.58301173  0.92341473    -0.06300
C686        C  0.25868546  0.60132259  0.91059152    -0.15900
C687        C  0.26256123  0.61815378  0.92855573    -0.01500
C688        C  0.26134141  0.61584891  0.95890006    -0.09100
C689        C  0.24702081  0.56062929  0.96681562     0.65200
H690        H  0.25035664  0.57043021  0.90933916     0.10700
C691        C  0.26740835  0.63858459  0.91596624     0.63600
H692        H  0.26407779  0.62846737  0.97314708     0.08000
F693        F  0.20114210  0.59540178  0.04192380    -0.19400
F694        F  0.21375692  0.61105594  0.08073896    -0.15700
F695        F  0.21411728  0.57733430  0.07813386    -0.19100
F696        F  0.29787088  0.61271371  0.99148533    -0.22500
F697        F  0.29548165  0.57936908  0.98598813    -0.24000
F698        F  0.30973669  0.59222536  0.02580935    -0.18000
F699        F  0.26836049  0.65315339  0.93730839    -0.20500
F700        F  0.25288592  0.64418698  0.89624257    -0.21600
F701        F  0.28565540  0.63797904  0.90218308    -0.18800
F702        F  0.24452773  0.54615741  0.94561930    -0.18900
F703        F  0.22936685  0.56227029  0.98195873    -0.22700
F704        F  0.26178808  0.55426995  0.98559488    -0.24400
C705        C  0.25292199  0.43060757  0.51517285    -0.11200
C706        C  0.25699443  0.41303808  0.49978349     0.11400
C707        C  0.26243607  0.39548884  0.51496283    -0.03000
C708        C  0.26321774  0.39607604  0.54551643    -0.05700
C709        C  0.25856600  0.41349147  0.56117638    -0.16500
C710        C  0.25343983  0.43118232  0.54578174     0.02400
C711        C  0.25596594  0.41352630  0.46760275     0.12400
C712        C  0.26723057  0.37621873  0.49889316     0.63000
H713        H  0.26712859  0.38269518  0.55751124     0.12400
C714        C  0.24884864  0.45067050  0.56131122     0.55100
H715        H  0.24909257  0.44388023  0.50285003     0.08200
C716        C  0.23786940  0.41081638  0.45240856    -0.05600
C717        C  0.23835085  0.40997432  0.42185353    -0.06300
C718        C  0.25625264  0.41166679  0.40638713    -0.15900
C719        C  0.27423902  0.41520248  0.42162454    -0.01500
C720        C  0.27369207  0.41629233  0.45215464    -0.09100
C721        C  0.21819930  0.40895893  0.46840671     0.65200
H722        H  0.22471249  0.40758890  0.40974150     0.10700
C723        C  0.29386517  0.41797531  0.40584668     0.63600
H724        H  0.28727045  0.41870849  0.46440601     0.08000
F725        F  0.23117351  0.44893379  0.57641654    -0.19400
F726        F  0.24689994  0.46643704  0.54201965    -0.15700
F727        F  0.26405704  0.45529263  0.58044509    -0.19100
F728        F  0.28340693  0.37906405  0.48086473    -0.22500
F729        F  0.25113734  0.37035293  0.48225061    -0.24000
F730        F  0.27175074  0.36080757  0.51785629    -0.18000
F731        F  0.30876886  0.42428331  0.42449342    -0.20500
F732        F  0.29181475  0.43219070  0.38418988    -0.21600
F733        F  0.29976102  0.40006348  0.39362973    -0.18800
F734        F  0.20258324  0.40526364  0.44951616    -0.18900
F735        F  0.21422994  0.42653315  0.48305937    -0.22700
F736        F  0.21897129  0.39346285  0.48824356    -0.24400
C737        C  0.25140349  0.47794737  0.22781703    -0.11200
C738        C  0.25496682  0.49527405  0.24406825     0.11400
C739        C  0.25795808  0.49390688  0.27450176    -0.03000
C740        C  0.25716896  0.47500348  0.28765924    -0.05700
C741        C  0.25359533  0.45755458  0.27149940    -0.16500
C742        C  0.25104131  0.45894169  0.24084000     0.02400
C743        C  0.25503198  0.51470403  0.22858336     0.12400
C744        C  0.26220223  0.51225330  0.29298749     0.63000
H745        H  0.25918921  0.47375063  0.31099477     0.12400
C746        C  0.24847511  0.44062764  0.22166773     0.55100
H747        H  0.24885035  0.47950463  0.20462515     0.08200
C748        C  0.27104770  0.52074838  0.21075071    -0.05600
C749        C  0.26985352  0.53929257  0.19658887    -0.06300
C750        C  0.25339035  0.55204612  0.19991360    -0.15900
C751        C  0.23745719  0.54601990  0.21832110    -0.01500
C752        C  0.23844975  0.52713808  0.23165948    -0.09100
C753        C  0.28918372  0.50757888  0.20627308     0.65200
H754        H  0.28195467  0.54393799  0.18255653     0.10700
C755        C  0.21943821  0.55913498  0.22406192     0.63600
H756        H  0.22623185  0.52185698  0.24499871     0.08000
F757        F  0.24869728  0.44546638  0.19236406    -0.19400
F758        F  0.23048917  0.43153280  0.22759940    -0.15700
F759        F  0.26383334  0.42730726  0.22666392    -0.19100
F760        F  0.24611935  0.52507060  0.29243450    -0.22500
F761        F  0.27874854  0.52207258  0.28238347    -0.24000
F762        F  0.26583299  0.50731012  0.32177235    -0.18000
F763        F  0.20591749  0.55001228  0.24247384    -0.20500
F764        F  0.20978320  0.56327074  0.19816843    -0.21600
F765        F  0.22535650  0.57674627  0.23719363    -0.18800
F766        F  0.30425990  0.51763244  0.19194730    -0.18900
F767        F  0.28404513  0.49112679  0.18974621    -0.22700
F768        F  0.29656638  0.50123858  0.23280560    -0.24400
C769        C  0.90704666  0.26277412  0.01514995    -0.11200
C770        C  0.90979441  0.24495928  0.99972032     0.11400
C771        C  0.91282079  0.22684851  0.01496543    -0.03000
C772        C  0.91211002  0.22709167  0.04558615    -0.05700
C773        C  0.90873706  0.24484854  0.06110156    -0.16500
C774        C  0.90609104  0.26304735  0.04570516     0.02400
C775        C  0.90829207  0.24565215  0.96752136     0.12400
C776        C  0.91677469  0.20743247  0.99887568     0.63000
H777        H  0.91411706  0.21336521  0.05769644     0.12400
C778        C  0.90113212  0.28248436  0.06120074     0.55100
H779        H  0.90498415  0.27641853  0.00286731     0.08200
C780        C  0.88964342  0.24547596  0.95325317    -0.05600
C781        C  0.88922015  0.24585328  0.92266154    -0.06300
C782        C  0.90672853  0.24697613  0.90610769    -0.15900
C783        C  0.92539361  0.24743952  0.92051173    -0.01500
C784        C  0.92580852  0.24679357  0.95115274    -0.09100
C785        C  0.87029857  0.24509665  0.97034088     0.65200
H786        H  0.87508674  0.24570187  0.91136246     0.10700
C787        C  0.94478064  0.24779802  0.90372254     0.63600
H788        H  0.93984576  0.24715481  0.96269198     0.08000
F789        F  0.88486612  0.27975095  0.07918011    -0.19400
F790        F  0.89649273  0.29760586  0.04180924    -0.15700
F791        F  0.91723844  0.28868062  0.07757943    -0.19100
F792        F  0.93449400  0.20888949  0.98383321    -0.22500
F793        F  0.90160326  0.20356752  0.97936480    -0.24000
F794        F  0.91813725  0.19135513  0.01771531    -0.18000
F795        F  0.96109747  0.24589701  0.92189318    -0.20500
F796        F  0.94659582  0.26565876  0.88887208    -0.21600
F797        F  0.94512129  0.23209614  0.88419296    -0.18800
F798        F  0.85387845  0.24417167  0.95222465    -0.18900
F799        F  0.86868573  0.26221741  0.98697677    -0.22700
F800        F  0.86984421  0.22863534  0.98848417    -0.24400
C801        C  0.06953689  0.23514815  0.45353111    -0.11200
C802        C  0.08666741  0.23070663  0.46957375     0.11400
C803        C  0.10434281  0.22519980  0.45508314    -0.03000
C804        C  0.10450653  0.22526679  0.42458017    -0.05700
C805        C  0.08777971  0.23100637  0.40820933    -0.16500
C806        C  0.06974715  0.23568194  0.42290645     0.02400
C807        C  0.08618979  0.23337744  0.50151867     0.12400
C808        C  0.12308175  0.21972487  0.47180023     0.63000
H809        H  0.11809575  0.22144168  0.41329060     0.12400
C810        C  0.05087193  0.24150946  0.40682123     0.55100
H811        H  0.05618032  0.23904412  0.46538553     0.08200
C812        C  0.08905846  0.25237487  0.51432929    -0.05600
C813        C  0.09066704  0.25362776  0.54474775    -0.06300
C814        C  0.08926998  0.23660717  0.56246593    -0.15900
C815        C  0.08513684  0.21776855  0.54963235    -0.01500
C816        C  0.08374912  0.21651699  0.51915197    -0.09100
C817        C  0.09034447  0.27117984  0.49587291     0.65200
H818        H  0.09334763  0.26798903  0.55497137     0.10700
C819        C  0.08167480  0.19919890  0.56790507     0.63600
H820        H  0.08115116  0.20221071  0.50867385     0.08000
F821        F  0.03485925  0.24352624  0.42549932    -0.19400
F822        F  0.04608827  0.22698545  0.38658573    -0.15700
F823        F  0.05356541  0.25964035  0.39296164    -0.19100
F824        F  0.11973921  0.20268259  0.48804011    -0.22500
F825        F  0.12841967  0.23514212  0.49022849    -0.24000
F826        F  0.13895581  0.21605608  0.45341009    -0.18000
F827        F  0.06755652  0.20312885  0.58901969    -0.20500
F828        F  0.09922565  0.19335335  0.58104320    -0.21600
F829        F  0.07486817  0.18338482  0.55124099    -0.18800
F830        F  0.09466597  0.28786642  0.51248706    -0.18900
F831        F  0.07234214  0.27440937  0.48212807    -0.22700
F832        F  0.10505869  0.26922643  0.47508299    -0.24400
C833        C  0.16262636  0.30567977  0.30355691    -0.11200
C834        C  0.15848236  0.32178356  0.32196975     0.11400
C835        C  0.14073510  0.32196256  0.33844423    -0.03000
C836        C  0.12836658  0.30496534  0.33765072    -0.05700
C837        C  0.13325310  0.28822088  0.32063195    -0.16500
C838        C  0.15024307  0.28884986  0.30240924     0.02400
C839        C  0.17342664  0.33799296  0.32354956     0.12400
C840        C  0.13494975  0.34007725  0.35642772     0.63000
H841        H  0.11496306  0.30448723  0.35066574     0.12400
C842        C  0.15498551  0.27217324  0.28106779     0.55100
H843        H  0.17599787  0.30626777  0.29047636     0.08200
C844        C  0.19050919  0.33619147  0.34130721    -0.05600
C845        C  0.20506093  0.35113707  0.33985491    -0.06300
C846        C  0.20352280  0.36730111  0.32048889    -0.15900
C847        C  0.18638215  0.36907371  0.30257113    -0.01500
C848        C  0.17150274  0.35432828  0.30466355    -0.09100
C849        C  0.19380136  0.31810587  0.36075003     0.65200
H850        H  0.21821649  0.34993634  0.35338345     0.10700
C851        C  0.18414994  0.38574229  0.28038560     0.63600
H852        H  0.15844584  0.35504117  0.29085492     0.08000
F853        F  0.16071723  0.25518439  0.29596513    -0.19400
F854        F  0.17027722  0.27734874  0.26241193    -0.15700
F855        F  0.13840087  0.26801768  0.26429414    -0.19100
F856        F  0.13289776  0.35649632  0.33842186    -0.22500
F857        F  0.14942696  0.34407725  0.37697347    -0.24000
F858        F  0.11711671  0.33721564  0.37082218    -0.18000
F859        F  0.16713062  0.38354489  0.26372396    -0.20500
F860        F  0.20027200  0.38572035  0.26172165    -0.21600
F861        F  0.18299532  0.40395392  0.29445882    -0.18800
F862        F  0.21091494  0.31990559  0.37730375    -0.18900
F863        F  0.19561152  0.30113734  0.34383858    -0.22700
F864        F  0.17797234  0.31576919  0.37956100    -0.24400
C865        C  0.02395023  0.25558427  0.23381418    -0.11200
C866        C  0.00902543  0.24190518  0.24100432     0.11400
C867        C  0.01246249  0.22740013  0.26276141    -0.03000
C868        C  0.03085093  0.22739552  0.27723008    -0.05700
C869        C  0.04583382  0.24133113  0.27060273    -0.16500
C870        C  0.04235625  0.25575775  0.24837976     0.02400
C871        C  0.99012166  0.24271606  0.22454156     0.12400
C872        C  0.99680742  0.21192956  0.27053582     0.63000
H873        H  0.03359125  0.21643730  0.29403815     0.12400
C874        C  0.05776281  0.27125721  0.23971302     0.55100
H875        H  0.02090876  0.26625302  0.21669866     0.08200
C876        C  0.97467485  0.25602882  0.23201303    -0.05600
C877        C  0.95687177  0.25530679  0.21598842    -0.06300
C878        C  0.95427831  0.24210403  0.19238574    -0.15900
C879        C  0.97033443  0.22941986  0.18416713    -0.01500
C880        C  0.98796484  0.22999776  0.20061776    -0.09100
C881        C  0.97716207  0.27110058  0.25650250     0.65200
H882        H  0.94482054  0.26521521  0.22183525     0.10700
C883        C  0.96924509  0.21538314  0.15821721     0.63600
H884        H  0.00032299  0.22036295  0.19512127     0.08000
F885        F  0.06129062  0.28403420  0.26279970    -0.19400
F886        F  0.05152175  0.28274406  0.21636593    -0.15700
F887        F  0.07524914  0.26189749  0.23168924    -0.19100
F888        F  0.99293662  0.19996994  0.24668691    -0.22500
F889        F  0.97943664  0.22128448  0.27896809    -0.24000
F890        F  0.00291399  0.19971470  0.29315863    -0.18000
F891        F  0.96492868  0.22610948  0.13325940    -0.20500
F892        F  0.95475991  0.20109582  0.16290575    -0.21600
F893        F  0.98702970  0.20548506  0.15355976    -0.18800
F894        F  0.96004334  0.28214069  0.26098799    -0.18900
F895        F  0.99232355  0.28422360  0.24973199    -0.22700
F896        F  0.98177632  0.26144007  0.28221879    -0.24400
C897        C  0.10457052  0.78332355  0.96042259    -0.11200
C898        C  0.08557464  0.77958173  0.97150973     0.11400
C899        C  0.06929722  0.77720436  0.95237328    -0.03000
C900        C  0.07291138  0.77756834  0.92223102    -0.05700
C901        C  0.09210337  0.78059943  0.91100547    -0.16500
C902        C  0.10828428  0.78356848  0.93037834     0.02400
C903        C  0.08371648  0.77718297  0.00337590     0.12400
C904        C  0.04828432  0.77459906  0.96380379     0.63000
H905        H  0.06070323  0.77552105  0.90709652     0.12400
C906        C  0.12953412  0.78581482  0.91969660     0.55100
H907        H  0.11666872  0.78533112  0.97575734     0.08200
C908        C  0.08833663  0.75883896  0.01706234    -0.05600
C909        C  0.08821979  0.75797954  0.04755976    -0.06300
C910        C  0.08474447  0.77501845  0.06465007    -0.15900
C911        C  0.08005157  0.79342581  0.05084100    -0.01500
C912        C  0.07940132  0.79406406  0.02022542    -0.09100
C913        C  0.09429110  0.74050001  0.99955286     0.65200
H914        H  0.09192265  0.74407536  0.05834541     0.10700
C915        C  0.07603457  0.81237589  0.06802806     0.63600
H916        H  0.07632925  0.80799116  0.00906445     0.08000
F917        F  0.14303367  0.78608172  0.94246516    -0.19400
F918        F  0.13154941  0.80352111  0.90452034    -0.15700
F919        F  0.13438251  0.76993608  0.90179040    -0.19100
F920        F  0.04275426  0.79148876  0.97907908    -0.22500
F921        F  0.04724311  0.75827273  0.98213271    -0.24000
F922        F  0.03474639  0.77173723  0.94147698    -0.18000
F923        F  0.09342042  0.81888038  0.08100998    -0.20500
F924        F  0.06185674  0.80877305  0.08917140    -0.21600
F925        F  0.06905153  0.82762401  0.05041586    -0.18800
F926        F  0.09741989  0.72402735  0.01717915    -0.18900
F927        F  0.11172564  0.74426393  0.98465997    -0.22700
F928        F  0.07957641  0.73568885  0.97977782    -0.24400
C929        C  0.14402919  0.68725636  0.13349788    -0.11200
C930        C  0.16191333  0.68954804  0.14877232     0.11400
C931        C  0.16559870  0.70726230  0.16468157    -0.03000
C932        C  0.15104547  0.72227523  0.16468596    -0.05700
C933        C  0.13293149  0.71989770  0.14993616    -0.16500
C934        C  0.12921687  0.70209088  0.13409780     0.02400
C935        C  0.17693553  0.67344833  0.14721091     0.12400
C936        C  0.18473381  0.71017001  0.18183469     0.63000
H937        H  0.15362063  0.73601012  0.17656998     0.12400
C938        C  0.11001916  0.69893582  0.11732360     0.55100
H939        H  0.14178181  0.67365591  0.12115754     0.08200
C940        C  0.17602380  0.65639390  0.16523931    -0.05600
C941        C  0.19220798  0.64314143  0.16528224    -0.06300
C942        C  0.20912853  0.64649509  0.14799709    -0.15900
C943        C  0.20945526  0.66313184  0.12870779    -0.01500
C944        C  0.19307061  0.67614665  0.12844870    -0.09100
C945        C  0.15810370  0.65232484  0.18442567     0.65200
H946        H  0.19189467  0.63020865  0.17938009     0.10700
C947        C  0.22684804  0.66744892  0.10856228     0.63600
H948        H  0.19303784  0.68915172  0.11445121     0.08000
F949        F  0.09425632  0.69772389  0.13651369    -0.19400
F950        F  0.11039014  0.68147510  0.10119874    -0.15700
F951        F  0.10696698  0.71466647  0.09831648    -0.19100
F952        F  0.20085733  0.71021613  0.16323872    -0.22500
F953        F  0.18696248  0.69487251  0.20178528    -0.24000
F954        F  0.18480917  0.72805346  0.19693612    -0.18000
F955        F  0.22298534  0.68334166  0.09010862    -0.20500
F956        F  0.23079742  0.65091901  0.09146954    -0.21600
F957        F  0.24347572  0.67228013  0.12481021    -0.18800
F958        F  0.16062313  0.63531866  0.20116803    -0.18900
F959        F  0.14144477  0.64962701  0.16724724    -0.22700
F960        F  0.15491158  0.66823104  0.20301744    -0.24400
C961        C  0.92675873  0.77035356  0.46191169    -0.11200
C962        C  0.91076026  0.77826368  0.47770081     0.11400
C963        C  0.89432386  0.78649955  0.46264219    -0.03000
C964        C  0.89390551  0.78532099  0.43210474    -0.05700
C965        C  0.90933735  0.77632279  0.41624375    -0.16500
C966        C  0.92639142  0.76924723  0.43126368     0.02400
C967        C  0.91112060  0.77697288  0.51002130     0.12400
C968        C  0.87720876  0.79632098  0.47878116     0.63000
H969        H  0.88116678  0.79105287  0.42034208     0.12400
C970        C  0.94424070  0.76089727  0.41518972     0.55100
H971        H  0.93937456  0.76456951  0.47393433     0.08200
C972        C  0.90582709  0.75917560  0.52479594    -0.05600
C973        C  0.90502870  0.75935315  0.55538850    -0.06300
C974        C  0.90877699  0.77679462  0.57138265    -0.15900
C975        C  0.91435124  0.79450963  0.55665705    -0.01500
C976        C  0.91582312  0.79416057  0.52607374    -0.09100
C977        C  0.90080445  0.74016229  0.50829883     0.65200
H978        H  0.90091454  0.74594604  0.56709980     0.10700
C979        C  0.91879645  0.81363146  0.57313838     0.63600
H980        H  0.92003336  0.80749954  0.51431946     0.08000
F981        F  0.96034953  0.75821709  0.43356185    -0.19400
F982        F  0.94993702  0.77394486  0.39338712    -0.15700
F983        F  0.93949782  0.74259604  0.40313458    -0.19100
F984        F  0.88396984  0.81313144  0.49315709    -0.22500
F985        F  0.86921721  0.78317357  0.49879981    -0.24000
F986        F  0.86215245  0.80217183  0.46007165    -0.18000
F987        F  0.92642245  0.82828184  0.55506762    -0.20500
F988        F  0.93260539  0.80993088  0.59480833    -0.21600
F989        F  0.90152747  0.82090462  0.58550242    -0.18800
F990        F  0.89433123  0.72515567  0.52672939    -0.18900
F991        F  0.91747836  0.73333955  0.49385028    -0.22700
F992        F  0.88588044  0.74382166  0.48828017    -0.24400
C993        C  0.97496325  0.75053819  0.24836011    -0.11200
C994        C  0.98515301  0.76861395  0.24484017     0.11400
C995        C  0.97725165  0.78632608  0.25689506    -0.03000
C996        C  0.95984589  0.78507619  0.27375583    -0.05700
C997        C  0.94974033  0.76689125  0.27803706    -0.16500
C998        C  0.95730856  0.74926582  0.26472720     0.02400
C999        C  0.00412905  0.76838066  0.22835131     0.12400
C1000       C  0.98695248  0.80648539  0.25148186     0.63000
H1001       H  0.95378488  0.79850269  0.28337399     0.12400
C1002       C  0.94722597  0.72910140  0.26798710     0.55100
H1003       H  0.98115411  0.73733788  0.23824550     0.08200
C1004       C  0.02229036  0.76286708  0.24168055    -0.05600
C1005       C  0.03962695  0.76252017  0.22465883    -0.06300
C1006       C  0.03939305  0.76768492  0.19503241    -0.15900
C1007       C  0.02111061  0.77293752  0.18157778    -0.01500
C1008       C  0.00369842  0.77299076  0.19858353    -0.09100
C1009       C  0.02336649  0.75749456  0.27379137     0.65200
H1010       H  0.05367760  0.75850429  0.23458430     0.10700
C1011       C  0.01980800  0.77805504  0.14940676     0.63600
H1012       H  0.98953012  0.77679120  0.18884539     0.08000
F1013       F  0.94505283  0.72453958  0.29716787    -0.19400
F1014       F  0.95812564  0.71389985  0.25522659    -0.15700
F1015       F  0.92879339  0.72955095  0.25467422    -0.19100
F1016       F  0.98682363  0.81062381  0.22200976    -0.22500
F1017       F  0.00637240  0.80634145  0.26127178    -0.24000
F1018       F  0.97702695  0.82178625  0.26558829    -0.18000
F1019       F  0.02844966  0.76303928  0.13304267    -0.20500
F1020       F  0.02948801  0.79590332  0.14412249    -0.21600
F1021       F  0.00032198  0.78014681  0.14021301    -0.18800
F1022       F  0.04251506  0.75268216  0.28233404    -0.18900
F1023       F  0.01136894  0.74121230  0.27944744    -0.22700
F1024       F  0.01707133  0.77344979  0.29047216    -0.24400
C1025       C  0.71583983  0.42650080  0.97606041    -0.11200
C1026       C  0.73273445  0.41997271  0.99113045     0.11400
C1027       C  0.74929918  0.41261958  0.97558203    -0.03000
C1028       C  0.74843059  0.41225420  0.94508363    -0.05700
C1029       C  0.73140921  0.41838206  0.92966809    -0.16500
C1030       C  0.71475685  0.42580128  0.94543122     0.02400
C1031       C  0.73220553  0.41957453  0.02334638     0.12400
C1032       C  0.76764524  0.40471905  0.99117563     0.63000
H1033       H  0.76099505  0.40648919  0.93303355     0.12400
C1034       C  0.69595923  0.43303156  0.93042347     0.55100
H1035       H  0.70330802  0.43177206  0.98868377     0.08200
C1036       C  0.73774386  0.43619973  0.04047491    -0.05600
C1037       C  0.73870011  0.43388747  0.07089241    -0.06300
C1038       C  0.73358081  0.41577937  0.08445101    -0.15900
C1039       C  0.72728477  0.39936202  0.06714315    -0.01500
C1040       C  0.72666787  0.40166658  0.03676852    -0.09100
C1041       C  0.74199815  0.45637262  0.02671354     0.65200
H1042       H  0.74318801  0.44634248  0.08440289     0.10700
C1043       C  0.72186387  0.37925860  0.08030229     0.63600
H1044       H  0.72219635  0.38933301  0.02301318     0.08000
F1045       F  0.68247752  0.44101469  0.94998716    -0.19400
F1046       F  0.68674651  0.41726387  0.91643117    -0.15700
F1047       F  0.70062976  0.44774772  0.91044445    -0.19100
F1048       F  0.76264998  0.38825887  0.00777310    -0.22500
F1049       F  0.77547131  0.41928711  0.00913167    -0.24000
F1050       F  0.78234145  0.39897672  0.97184096    -0.18000
F1051       F  0.70466501  0.38111083  0.09652359    -0.20500
F1052       F  0.73715937  0.37251204  0.09789629    -0.21600
F1053       F  0.71853680  0.36490285  0.05916858    -0.18800
F1054       F  0.74882405  0.47006004  0.04696895    -0.18900
F1055       F  0.72471860  0.46378872  0.01451083    -0.22700
F1056       F  0.75624134  0.45459883  0.00522018    -0.24400
C1057       C  0.82081244  0.35479473  0.17676334    -0.11200
C1058       C  0.81798235  0.33935383  0.15658925     0.11400
C1059       C  0.80058479  0.33908804  0.13922090    -0.03000
C1060       C  0.78621649  0.35406600  0.14346865    -0.05700
C1061       C  0.78894453  0.36955397  0.16373704    -0.16500
C1062       C  0.80682676  0.37028201  0.18017533     0.02400
C1063       C  0.83288608  0.32296194  0.15541638     0.12400
C1064       C  0.79730154  0.32316559  0.11611841     0.63000
H1065       H  0.77262805  0.35381129  0.13078003     0.12400
C1066       C  0.81110561  0.38703584  0.20154185     0.55100
H1067       H  0.83412462  0.35450307  0.19002947     0.08200
C1068       C  0.85160700  0.32513147  0.14168695    -0.05600
C1069       C  0.86455995  0.30859416  0.14096434    -0.06300
C1070       C  0.85929603  0.29019067  0.15343119    -0.15900
C1071       C  0.84078502  0.28823995  0.16785012    -0.01500
C1072       C  0.82798877  0.30482319  0.16883905    -0.09100
C1073       C  0.85794676  0.34482518  0.12817584     0.65200
H1074       H  0.87891770  0.30987123  0.13051693     0.10700
C1075       C  0.83474711  0.26894748  0.18284271     0.63600
H1076       H  0.81381833  0.30372750  0.17986235     0.08000
F1077       F  0.81276894  0.40490297  0.18663357    -0.19400
F1078       F  0.82869965  0.38398500  0.21654341    -0.15700
F1079       F  0.79593274  0.38837981  0.22173342    -0.19100
F1080       F  0.79554639  0.30459220  0.12895249    -0.22500
F1081       F  0.81318133  0.32294996  0.09705195    -0.24000
F1082       F  0.78019658  0.32664377  0.10012362    -0.18000
F1083       F  0.81733617  0.27113650  0.19853792    -0.20500
F1084       F  0.84950902  0.26301426  0.20196823    -0.21600
F1085       F  0.83170448  0.25415674  0.16232500    -0.18800
F1086       F  0.87581369  0.34310500  0.11347094    -0.18900
F1087       F  0.86028921  0.35903116  0.14972144    -0.22700
F1088       F  0.84373874  0.35132839  0.10859079    -0.24400
C1089       C  0.71189381  0.59535984  0.47236416    -0.11200
C1090       C  0.72943048  0.59904743  0.48798993     0.11400
C1091       C  0.74725496  0.60334038  0.47292108    -0.03000
C1092       C  0.74683218  0.60410796  0.44238327    -0.05700
C1093       C  0.72916446  0.60121936  0.42669968    -0.16500
C1094       C  0.71136517  0.59661989  0.44175920     0.02400
C1095       C  0.72867664  0.59907157  0.52024519     0.12400
C1096       C  0.76657491  0.60739238  0.48905976     0.63000
H1097       H  0.76026268  0.60748453  0.43047620     0.12400
C1098       C  0.69201005  0.59281972  0.42570448     0.55100
H1099       H  0.69853663  0.59196383  0.48443868     0.08200
C1100       C  0.72255621  0.61612463  0.53597273    -0.05600
C1101       C  0.72429198  0.61594898  0.56642448    -0.06300
C1102       C  0.73189388  0.59935860  0.58158514    -0.15900
C1103       C  0.73701386  0.58182812  0.56576368    -0.01500
C1104       C  0.73524077  0.58207175  0.53520383    -0.09100
C1105       C  0.71433829  0.63447048  0.52061443     0.65200
H1106       H  0.72004662  0.62910252  0.57863045     0.10700
C1107       C  0.74395395  0.56283053  0.58071118     0.63600
H1108       H  0.73947355  0.56911475  0.52251269     0.08000
F1109       F  0.68548083  0.61030431  0.41286436    -0.19400
F1110       F  0.67723123  0.58612796  0.44424314    -0.15700
F1111       F  0.69485185  0.57844966  0.40447898    -0.19100
F1112       F  0.77234517  0.59050604  0.50415735    -0.22500
F1113       F  0.76405385  0.62295351  0.50848134    -0.24000
F1114       F  0.78179586  0.61254888  0.47025960    -0.18000
F1115       F  0.74621176  0.54721677  0.56122540    -0.20500
F1116       F  0.73009989  0.55707730  0.60127624    -0.21600
F1117       F  0.76213425  0.56596127  0.59397566    -0.18800
F1118       F  0.71074560  0.64997342  0.53983673    -0.18900
F1119       F  0.69661732  0.62968183  0.50707787    -0.22700
F1120       F  0.72765793  0.64123292  0.49996327    -0.24400
C1121       C  0.80982952  0.66623587  0.31722522    -0.11200
C1122       C  0.81163679  0.67858169  0.34169767     0.11400
C1123       C  0.79823822  0.67637050  0.36518210    -0.03000
C1124       C  0.78350570  0.66151274  0.36344760    -0.05700
C1125       C  0.78156641  0.64911114  0.33891190    -0.16500
C1126       C  0.79501409  0.65144871  0.31528856     0.02400
C1127       C  0.82683958  0.69465852  0.34100079     0.12400
C1128       C  0.79916045  0.68998462  0.39160486     0.63000
H1129       H  0.77310721  0.65969047  0.38121178     0.12400
C1130       C  0.79341800  0.63906655  0.28765572     0.55100
H1131       H  0.82004426  0.66856731  0.29934152     0.08200
C1132       C  0.84721858  0.69094556  0.34636624    -0.05600
C1133       C  0.86076380  0.70685678  0.34376633    -0.06300
C1134       C  0.85454647  0.72629470  0.33662084    -0.15900
C1135       C  0.83395898  0.73003932  0.33193621    -0.01500
C1136       C  0.82057772  0.71394409  0.33363431    -0.09100
C1137       C  0.85458942  0.67030151  0.35483212     0.65200
H1138       H  0.87646676  0.70421171  0.34748350     0.10700
C1139       C  0.82597045  0.75070824  0.32477332     0.63600
H1140       H  0.80489149  0.71625670  0.32928753     0.08000
F1141       F  0.79734067  0.61923506  0.29379772    -0.19400
F1142       F  0.80682155  0.64520837  0.26663986    -0.15700
F1143       F  0.77452121  0.64085746  0.27603962    -0.19100
F1144       F  0.79421918  0.70924733  0.38358014    -0.22500
F1145       F  0.81810058  0.68993666  0.40326825    -0.24000
F1146       F  0.78610186  0.68398990  0.41316296    -0.18000
F1147       F  0.80576701  0.75041581  0.31898896    -0.20500
F1148       F  0.83547654  0.75822233  0.30045078    -0.21600
F1149       F  0.82899839  0.76334841  0.34816142    -0.18800
F1150       F  0.87475277  0.67026714  0.36088051    -0.18900
F1151       F  0.85121251  0.65702510  0.33235141    -0.22700
F1152       F  0.84470823  0.66374174  0.37939329    -0.24400
C1153       C  0.73123139  0.51964662  0.28656716    -0.11200
C1154       C  0.74629062  0.51828528  0.26563367     0.11400
C1155       C  0.75876164  0.53488481  0.26034770    -0.03000
C1156       C  0.75579539  0.55236251  0.27668266    -0.05700
C1157       C  0.74059050  0.55393482  0.29755353    -0.16500
C1158       C  0.72814905  0.53715021  0.30290574     0.02400
C1159       C  0.74769019  0.49965602  0.24829270     0.12400
C1160       C  0.77495373  0.53425023  0.23730771     0.63000
H1161       H  0.76514872  0.56524484  0.27262189     0.12400
C1162       C  0.71181311  0.53741634  0.32573008     0.55100
H1163       H  0.72163643  0.50679582  0.28966477     0.08200
C1164       C  0.75605861  0.48188670  0.25959604    -0.05600
C1165       C  0.75542329  0.46450074  0.24244341    -0.06300
C1166       C  0.74713504  0.46449697  0.21432555    -0.15900
C1167       C  0.74010484  0.48274131  0.20232454    -0.01500
C1168       C  0.73979465  0.49981329  0.22009131    -0.09100
C1169       C  0.76556370  0.48127896  0.28959482     0.65200
H1170       H  0.76107606  0.45060506  0.25121852     0.10700
C1171       C  0.73376840  0.48463396  0.17069607     0.63600
H1172       H  0.73336077  0.51358111  0.21203986     0.08000
F1173       F  0.71964761  0.54287036  0.35242529    -0.19400
F1174       F  0.70300685  0.51886427  0.32900709    -0.15700
F1175       F  0.69712200  0.55077263  0.31767914    -0.19100
F1176       F  0.76656005  0.53221838  0.21001569    -0.22500
F1177       F  0.78752570  0.51830475  0.24241411    -0.24000
F1178       F  0.78627151  0.55151176  0.23723508    -0.18000
F1179       F  0.71593211  0.47487911  0.16622915    -0.20500
F1180       F  0.74822241  0.47650265  0.15286529    -0.21600
F1181       F  0.73127202  0.50440521  0.16259817    -0.18800
F1182       F  0.77406853  0.46287050  0.29541061    -0.18900
F1183       F  0.75143416  0.48498273  0.31070573    -0.22700
F1184       F  0.78032789  0.49557140  0.29146205    -0.24400
C1185       C  0.16080956  0.14663562  0.76330974    -0.11200
C1186       C  0.16665921  0.15890634  0.74017406     0.11400
C1187       C  0.18675129  0.15908432  0.73119201    -0.03000
C1188       C  0.20052478  0.14717494  0.74627562    -0.05700
C1189       C  0.19500949  0.13554306  0.77046120    -0.16500
C1190       C  0.17461894  0.13480498  0.77869730     0.02400
C1191       C  0.15194660  0.17300820  0.72762292     0.12400
C1192       C  0.19382597  0.17252269  0.70661885     0.63000
H1193       H  0.21599065  0.14766124  0.74001587     0.12400
C1194       C  0.16725760  0.12186895  0.80361065     0.55100
H1195       H  0.14538815  0.14699153  0.76987247     0.08200
C1196       C  0.13845065  0.16749022  0.70546283    -0.05600
C1197       C  0.12680493  0.18247517  0.69242294    -0.06300
C1198       C  0.12793111  0.20257573  0.70127393    -0.15900
C1199       C  0.14047524  0.20772404  0.72511194    -0.01500
C1200       C  0.15222525  0.19269361  0.73782042    -0.09100
C1201       C  0.13640117  0.14593920  0.69565071     0.65200
H1202       H  0.11680895  0.17855627  0.67484192     0.10700
C1203       C  0.14206470  0.22888747  0.73686898     0.63600
H1204       H  0.16233228  0.19626917  0.75544709     0.08000
F1205       F  0.17344059  0.10235681  0.79959854    -0.19400
F1206       F  0.14671454  0.12176965  0.80537766    -0.15700
F1207       F  0.17455921  0.12906290  0.82972293    -0.19100
F1208       F  0.19247963  0.19228211  0.71508677    -0.22500
F1209       F  0.18227479  0.16961822  0.68208825    -0.24000
F1210       F  0.21338915  0.16869382  0.69916874    -0.18000
F1211       F  0.15531772  0.23020828  0.75987104    -0.20500
F1212       F  0.12371224  0.23513786  0.74688044    -0.21600
F1213       F  0.14865204  0.24161641  0.71521808    -0.18800
F1214       F  0.12264169  0.14391328  0.67340614    -0.18900
F1215       F  0.13016185  0.13431262  0.71875531    -0.22700
F1216       F  0.15445873  0.13885698  0.68574369    -0.24400
C1217       C  0.15214616  0.82725444  0.73126131    -0.11200
C1218       C  0.15096317  0.84734040  0.73937499     0.11400
C1219       C  0.13723498  0.85335406  0.76085246    -0.03000
C1220       C  0.12644880  0.83852928  0.77578328    -0.05700
C1221       C  0.12854412  0.81808823  0.76910542    -0.16500
C1222       C  0.14117966  0.81237705  0.74564553     0.02400
C1223       C  0.16527344  0.86133828  0.72580475     0.12400
C1224       C  0.13383516  0.87530414  0.76750231     0.63000
H1225       H  0.11630603  0.84285077  0.79289091     0.12400
C1226       C  0.14374917  0.79079253  0.73601905     0.55100
H1227       H  0.16240532  0.82329835  0.71410023     0.08200
C1228       C  0.18511527  0.86260522  0.73579097    -0.05600
C1229       C  0.19867922  0.87419423  0.71993130    -0.06300
C1230       C  0.19315769  0.88444259  0.69443833    -0.15900
C1231       C  0.17295493  0.88381004  0.68517611    -0.01500
C1232       C  0.15940437  0.87202791  0.70105649    -0.09100
C1233       C  0.19201490  0.85146968  0.76285532     0.65200
H1234       H  0.21399115  0.87495535  0.72716128     0.10700
C1235       C  0.16561849  0.89504651  0.65852355     0.63600
H1236       H  0.14412105  0.87061770  0.69389254     0.08000
F1237       F  0.15103056  0.77945633  0.75883589    -0.19400
F1238       F  0.15696862  0.78899743  0.71309057    -0.15700
F1239       F  0.12569236  0.78320401  0.72679490    -0.19100
F1240       F  0.12624524  0.88466953  0.74307768    -0.22500
F1241       F  0.15150245  0.88440844  0.77521685    -0.24000
F1242       F  0.12048639  0.87794888  0.79007513    -0.18000
F1243       F  0.17566314  0.88855500  0.63403762    -0.20500
F1244       F  0.16865212  0.91531170  0.66231865    -0.21600
F1245       F  0.14551217  0.89212144  0.65371390    -0.18800
F1246       F  0.21169403  0.85548499  0.76944124    -0.18900
F1247       F  0.19020716  0.83111202  0.75870313    -0.22700
F1248       F  0.18061744  0.85705646  0.78649428    -0.24400
C1249       C  0.26426024  0.98723013  0.72442944    -0.11200
C1250       C  0.24948326  0.00169787  0.72075490     0.11400
C1251       C  0.23363323  0.99824656  0.70118991    -0.03000
C1252       C  0.23268334  0.97978711  0.68669455    -0.05700
C1253       C  0.24700295  0.96477396  0.69122050    -0.16500
C1254       C  0.26325830  0.96861190  0.71032866     0.02400
C1255       C  0.25042503  0.01998354  0.73885416     0.12400
C1256       C  0.21783500  0.01404659  0.69572884     0.63000
H1257       H  0.22048811  0.97687964  0.67189382     0.12400
C1258       C  0.27948119  0.95331835  0.71622753     0.55100
H1259       H  0.27633610  0.99051230  0.73928729     0.08200
C1260       C  0.24309001  0.02022245  0.76767439    -0.05600
C1261       C  0.24275202  0.03844798  0.78280376    -0.06300
C1262       C  0.24988173  0.05619658  0.77027082    -0.15900
C1263       C  0.25812651  0.05568223  0.74178113    -0.01500
C1264       C  0.25826699  0.03741972  0.72660507    -0.09100
C1265       C  0.23553548  0.00129537  0.78220988     0.65200
H1266       H  0.23679842  0.03897919  0.80469140     0.10700
C1267       C  0.26608265  0.07430137  0.72691010     0.63600
H1268       H  0.26415146  0.03661746  0.70468562     0.08000
F1269       F  0.29433289  0.96088037  0.73394237    -0.19400
F1270       F  0.28819171  0.94750734  0.69031339    -0.15700
F1271       F  0.27147094  0.93687117  0.73015600    -0.19100
F1272       F  0.22646507  0.03066005  0.68312969    -0.22500
F1273       F  0.20899469  0.01957986  0.72165360    -0.24000
F1274       F  0.20305955  0.00724391  0.67724209    -0.18000
F1275       F  0.28251594  0.08131784  0.74183646    -0.20500
F1276       F  0.25153102  0.08889755  0.72622679    -0.21600
F1277       F  0.27183912  0.07057159  0.69850634    -0.18800
F1278       F  0.22849022  0.00493274  0.80999529    -0.18900
F1279       F  0.25078887  0.98753879  0.78434269    -0.22700
F1280       F  0.22022577  0.99311783  0.76604861    -0.24400
C1281       C  0.34014255  0.32622671  0.74554582    -0.11200
C1282       C  0.34467027  0.34656056  0.74799795     0.11400
C1283       C  0.36014344  0.35279433  0.76677366    -0.03000
C1284       C  0.37108653  0.33814893  0.78186767    -0.05700
C1285       C  0.36682037  0.31768268  0.77905917    -0.16500
C1286       C  0.35091282  0.31155238  0.76070160     0.02400
C1287       C  0.33181767  0.36079776  0.73189504     0.12400
C1288       C  0.36472825  0.37477460  0.77136043     0.63000
H1289       H  0.38303146  0.34263389  0.79632601     0.12400
C1290       C  0.34479378  0.28978678  0.75757848     0.55100
H1291       H  0.32786144  0.32196504  0.73153560     0.08200
C1292       C  0.33383163  0.36398771  0.70160590    -0.05600
C1293       C  0.31918486  0.37520762  0.68705327    -0.06300
C1294       C  0.30256169  0.38301803  0.70172102    -0.15900
C1295       C  0.30121303  0.38066739  0.73245088    -0.01500
C1296       C  0.31584828  0.36936806  0.74686716    -0.09100
C1297       C  0.35112635  0.35518818  0.68464379     0.65200
H1298       H  0.32024182  0.37725443  0.66375015     0.10700
C1299       C  0.28452737  0.38984524  0.75026198     0.63600
H1300       H  0.31456210  0.36645794  0.76996383     0.08000
F1301       F  0.35955284  0.27927029  0.74333306    -0.19400
F1302       F  0.32742971  0.28770905  0.74165729    -0.15700
F1303       F  0.34154644  0.28148524  0.78473779    -0.19100
F1304       F  0.34879550  0.38398179  0.78475691    -0.22500
F1305       F  0.36825010  0.38398528  0.74495861    -0.24000
F1306       F  0.38133158  0.37749799  0.78873587    -0.18000
F1307       F  0.28799324  0.38817136  0.77987455    -0.20500
F1308       F  0.26681696  0.38023396  0.74421289    -0.21600
F1309       F  0.28281123  0.40996186  0.74382982    -0.18800
F1310       F  0.35088028  0.36108148  0.65576358    -0.18900
F1311       F  0.35028684  0.33457736  0.68540667    -0.22700
F1312       F  0.36890563  0.36139178  0.69669030    -0.24400
C1313       C  0.33565645  0.20624480  0.85281414    -0.11200
C1314       C  0.32676091  0.20179087  0.82597317     0.11400
C1315       C  0.33165101  0.21319346  0.80103739    -0.03000
C1316       C  0.34629180  0.22805280  0.80354396    -0.05700
C1317       C  0.35539405  0.23235415  0.83027761    -0.16500
C1318       C  0.34990867  0.22151600  0.85550670     0.02400
C1319       C  0.31181913  0.18552358  0.82486623     0.12400
C1320       C  0.32128145  0.20983699  0.77205981     0.63000
H1321       H  0.35054120  0.23674656  0.78464083     0.12400
C1322       C  0.35941885  0.22567188  0.88487583     0.55100
H1323       H  0.33126604  0.19760691  0.87169721     0.08200
C1324       C  0.31730752  0.16527924  0.82155816    -0.05600
C1325       C  0.30222378  0.15081038  0.81957128    -0.06300
C1326       C  0.28196626  0.15583523  0.82187479    -0.15900
C1327       C  0.27659442  0.17617940  0.82635745    -0.01500
C1328       C  0.29174994  0.19064408  0.82768767    -0.09100
C1329       C  0.33900022  0.15897986  0.82081268     0.65200
H1330       H  0.30624774  0.13527457  0.81674476     0.10700
C1331       C  0.25512685  0.18286460  0.82954843     0.63600
H1332       H  0.28810283  0.20623946  0.83095056     0.08000
F1333       F  0.37987286  0.22428893  0.88261205    -0.19400
F1334       F  0.35322332  0.21221581  0.90586494    -0.15700
F1335       F  0.35432701  0.24462401  0.89418478    -0.19100
F1336       F  0.30110913  0.21312197  0.77507343    -0.22500
F1337       F  0.32434812  0.19046831  0.76271970    -0.24000
F1338       F  0.32825111  0.22265131  0.75073441    -0.18000
F1339       F  0.25348899  0.20342877  0.83166907    -0.20500
F1340       F  0.24708541  0.17471346  0.85455863    -0.21600
F1341       F  0.24421655  0.17685122  0.80556661    -0.18800
F1342       F  0.34108032  0.13859916  0.81673049    -0.18900
F1343       F  0.34802288  0.16389645  0.84688669    -0.22700
F1344       F  0.34877143  0.16858492  0.79838463    -0.24400
C1345       C  0.64138389  0.34621352  0.72254001    -0.11200
C1346       C  0.65123855  0.33960864  0.74760944     0.11400
C1347       C  0.64865051  0.31979390  0.75736279    -0.03000
C1348       C  0.63754027  0.30662193  0.74009701    -0.05700
C1349       C  0.62824094  0.31281356  0.71416982    -0.16500
C1350       C  0.62962186  0.33322031  0.70564938     0.02400
C1351       C  0.66489676  0.35353028  0.76262688     0.12400
C1352       C  0.65716526  0.31275045  0.78625272     0.63000
H1353       H  0.63604413  0.29122974  0.74693213     0.12400
C1354       C  0.61872606  0.34151010  0.67930762     0.55100
H1355       H  0.64333780  0.36164560  0.71605768     0.08200
C1356       C  0.68511500  0.35496067  0.75452446    -0.05600
C1357       C  0.69766318  0.36742268  0.77081513    -0.06300
C1358       C  0.69057026  0.37850551  0.79454689    -0.15900
C1359       C  0.67006405  0.37795753  0.80158211    -0.01500
C1360       C  0.65751100  0.36529131  0.78541925    -0.09100
C1361       C  0.69335223  0.34339347  0.72874123     0.65200
H1362       H  0.71329858  0.36832331  0.76544818     0.10700
C1363       C  0.66136173  0.39106808  0.82530941     0.63600
H1364       H  0.64187530  0.36421956  0.79067439     0.08000
F1365       F  0.62058387  0.36206663  0.67726708    -0.19400
F1366       F  0.59867875  0.33715542  0.68133210    -0.15700
F1367       F  0.62640994  0.33327930  0.65412534    -0.19100
F1368       F  0.64862694  0.32356203  0.80860813    -0.22500
F1369       F  0.67751090  0.31547794  0.78695987    -0.24000
F1370       F  0.65337311  0.29270720  0.79116061    -0.18000
F1371       F  0.64079226  0.39041413  0.82543341    -0.20500
F1372       F  0.66703550  0.41069951  0.82092412    -0.21600
F1373       F  0.66802429  0.38473741  0.85223366    -0.18800
F1374       F  0.71344075  0.34690178  0.72476885    -0.18900
F1375       F  0.68353680  0.34907191  0.70362844    -0.22700
F1376       F  0.69078061  0.32311959  0.73290348    -0.24400
C1377       C  0.51257474  0.28378515  0.72686168    -0.11200
C1378       C  0.50848167  0.26752014  0.74496765     0.11400
C1379       C  0.52194245  0.25134878  0.74645101    -0.03000
C1380       C  0.53957258  0.25240188  0.73013538    -0.05700
C1381       C  0.54403175  0.26892917  0.71233418    -0.16500
C1382       C  0.53027039  0.28505666  0.71077365     0.02400
C1383       C  0.48979346  0.26802763  0.76194670     0.12400
C1384       C  0.51758828  0.23305154  0.76495110     0.63000
H1385       H  0.55003555  0.24006094  0.73105299     0.12400
C1386       C  0.53422960  0.30382619  0.69310138     0.55100
H1387       H  0.50169847  0.29576451  0.72583931     0.08200
C1388       C  0.48785014  0.27982694  0.78736529    -0.05600
C1389       C  0.46921675  0.28079589  0.80111898    -0.06300
C1390       C  0.45280046  0.27017269  0.79042173    -0.15900
C1391       C  0.45482663  0.25823815  0.76509162    -0.01500
C1392       C  0.47337615  0.25754309  0.75111763    -0.09100
C1393       C  0.50534202  0.29144245  0.79968802     0.65200
H1394       H  0.46728291  0.28993840  0.82037874     0.10700
C1395       C  0.43734245  0.24690609  0.75220805     0.63600
H1396       H  0.47521637  0.24894837  0.73131375     0.08000
F1397       F  0.55187441  0.31246581  0.70209554    -0.19400
F1398       F  0.51933672  0.31790957  0.69648462    -0.15700
F1399       F  0.53528597  0.29914899  0.66383410    -0.19100
F1400       F  0.50111765  0.22322380  0.75408065    -0.22500
F1401       F  0.51391054  0.23865262  0.79339510    -0.24000
F1402       F  0.53334546  0.21974854  0.76509202    -0.18000
F1403       F  0.42159562  0.25982287  0.74757429    -0.20500
F1404       F  0.43153431  0.23190616  0.77104484    -0.21600
F1405       F  0.44208100  0.23814446  0.72582812    -0.18800
F1406       F  0.50070970  0.30040828  0.82596329    -0.18900
F1407       F  0.51094610  0.30625673  0.78043522    -0.22700
F1408       F  0.52125644  0.27876291  0.80429385    -0.24400
C1409       C  0.80267137  0.85728781  0.73333259    -0.11200
C1410       C  0.81999669  0.85090838  0.74745971     0.11400
C1411       C  0.82400216  0.85738484  0.77615625    -0.03000
C1412       C  0.80995250  0.86950514  0.79030019    -0.05700
C1413       C  0.79206463  0.87522307  0.77679657    -0.16500
C1414       C  0.78845300  0.86928798  0.74748650     0.02400
C1415       C  0.83360241  0.83718937  0.73172865     0.12400
C1416       C  0.84298973  0.85138920  0.79182244     0.63000
H1417       H  0.81274451  0.87431663  0.81240432     0.12400
C1418       C  0.76980516  0.87536680  0.73099285     0.55100
H1419       H  0.80019877  0.85232806  0.71119184     0.08200
C1420       C  0.83036728  0.81632110  0.73102152    -0.05600
C1421       C  0.84425199  0.80415512  0.71650411    -0.06300
C1422       C  0.86092453  0.81221697  0.70224194    -0.15900
C1423       C  0.86398562  0.83324018  0.70285669    -0.01500
C1424       C  0.85010158  0.84533509  0.71751359    -0.09100
C1425       C  0.81213135  0.80705886  0.74513102     0.65200
H1426       H  0.84193932  0.78812834  0.71572111     0.10700
C1427       C  0.88206437  0.84294630  0.68904772     0.63600
H1428       H  0.85205353  0.86141644  0.71822280     0.08000
F1429       F  0.75339476  0.86622723  0.74325566    -0.19400
F1430       F  0.77059890  0.86978089  0.70200321    -0.15700
F1431       F  0.76750853  0.89589446  0.73190965    -0.19100
F1432       F  0.85922636  0.85915381  0.77732353    -0.22500
F1433       F  0.84462928  0.83082492  0.79274251    -0.24000
F1434       F  0.84343089  0.85838977  0.82016542    -0.18000
F1435       F  0.88309399  0.86316841  0.69515130    -0.20500
F1436       F  0.88125778  0.84082012  0.65914029    -0.21600
F1437       F  0.89920105  0.83411574  0.69963786    -0.18800
F1438       F  0.81255945  0.78641014  0.74386210    -0.18900
F1439       F  0.79520339  0.81354419  0.73091212    -0.22700
F1440       F  0.81098131  0.81253405  0.77408737    -0.24400
C1441       C  0.83672030  0.14621289  0.71344090    -0.11200
C1442       C  0.82983687  0.16276013  0.72920370     0.11400
C1443       C  0.80919709  0.16659340  0.73064722    -0.03000
C1444       C  0.79612129  0.15393031  0.71555111    -0.05700
C1445       C  0.80282204  0.13745698  0.69920660    -0.16500
C1446       C  0.82356861  0.13315952  0.69880174     0.02400
C1447       C  0.84450065  0.17659573  0.74275683     0.12400
C1448       C  0.80096773  0.18412332  0.74792794     0.63000
H1449       H  0.78035829  0.15705761  0.71626419     0.12400
C1450       C  0.83197805  0.11498476  0.68334552     0.55100
H1451       H  0.85260799  0.14371358  0.71257710     0.08200
C1452       C  0.85317833  0.17292093  0.77028046    -0.05600
C1453       C  0.86505671  0.18791456  0.78301398    -0.06300
C1454       C  0.86833885  0.20643628  0.76924540    -0.15900
C1455       C  0.86040538  0.20956828  0.74084474    -0.01500
C1456       C  0.84886824  0.19437106  0.72803846    -0.09100
C1457       C  0.84962987  0.15338151  0.78625987     0.65200
H1458       H  0.87139252  0.18544250  0.80434862     0.10700
C1459       C  0.86368346  0.22881931  0.72397456     0.63600
H1460       H  0.84233465  0.19656066  0.70674473     0.08000
F1461       F  0.85237473  0.11347975  0.68677248    -0.19400
F1462       F  0.82801572  0.11615686  0.65385918    -0.15700
F1463       F  0.82356710  0.09782327  0.69470172    -0.19100
F1464       F  0.80745419  0.20190176  0.73600589    -0.22500
F1465       F  0.80727809  0.18299304  0.77651273    -0.24000
F1466       F  0.78039596  0.18437825  0.74795290    -0.18000
F1467       F  0.85619305  0.22769894  0.69594523    -0.20500
F1468       F  0.88380864  0.23279708  0.72193836    -0.21600
F1469       F  0.85415752  0.24444768  0.73785187    -0.18800
F1470       F  0.85922646  0.15291872  0.81291788    -0.18900
F1471       F  0.85666176  0.13763574  0.76977558    -0.22700
F1472       F  0.82953839  0.15072615  0.79111810    -0.24400
C1473       C  0.66929294  0.20461163  0.67736550    -0.11200
C1474       C  0.66266937  0.18737689  0.66298747     0.11400
C1475       C  0.64278166  0.18621925  0.65310995    -0.03000
C1476       C  0.63045112  0.20300934  0.65657722    -0.05700
C1477       C  0.63742087  0.22070467  0.66942629    -0.16500
C1478       C  0.65705013  0.22148002  0.68062882     0.02400
C1479       C  0.67718211  0.17093257  0.65880339     0.12400
C1480       C  0.63465633  0.16744024  0.63890239     0.63000
H1481       H  0.61529676  0.20261064  0.64860332     0.12400
C1482       C  0.66495018  0.23972505  0.69654118     0.55100
H1483       H  0.68442979  0.20485319  0.68545136     0.08200
C1484       C  0.69203484  0.17191430  0.63711037    -0.05600
C1485       C  0.70697316  0.15725563  0.63685460    -0.06300
C1486       C  0.70752315  0.14162940  0.65733874    -0.15900
C1487       C  0.69189549  0.14008561  0.67810960    -0.01500
C1488       C  0.67715148  0.15504869  0.67864009    -0.09100
C1489       C  0.69223945  0.18851587  0.61450606     0.65200
H1490       H  0.71866437  0.15816191  0.62072140     0.10700
C1491       C  0.69083529  0.12320752  0.70014152     0.63600
H1492       H  0.66565996  0.15480815  0.69513722     0.08000
F1493       F  0.66665837  0.25559493  0.67747735    -0.19400
F1494       F  0.68352937  0.23626848  0.70852303    -0.15700
F1495       F  0.65217155  0.24482651  0.71890689    -0.19100
F1496       F  0.63522248  0.15179685  0.65849876    -0.22500
F1497       F  0.64591173  0.16253152  0.61481520    -0.24000
F1498       F  0.61515454  0.16986247  0.62990516    -0.18000
F1499       F  0.67419724  0.12467291  0.71773225    -0.20500
F1500       F  0.70742915  0.12363580  0.71791515    -0.21600
F1501       F  0.68983130  0.10507235  0.68581238    -0.18800
F1502       F  0.70733577  0.18597546  0.59439644    -0.18900
F1503       F  0.69500909  0.20678301  0.62788040    -0.22700
F1504       F  0.67441393  0.18879249  0.59955036    -0.24400
C1505       C  0.74924147  0.01613776  0.70651874    -0.11200
C1506       C  0.75413596  0.01724459  0.73609021     0.11400
C1507       C  0.75993150  0.03564375  0.74844549    -0.03000
C1508       C  0.75981715  0.05273824  0.73075568    -0.05700
C1509       C  0.75485674  0.05185711  0.70100637    -0.16500
C1510       C  0.74963488  0.03312636  0.68847644     0.02400
C1511       C  0.75379360  0.99861307  0.75334651     0.12400
C1512       C  0.76668680  0.03708647  0.77997411     0.63000
H1513       H  0.76412155  0.06694059  0.74002310     0.12400
C1514       C  0.74439098  0.03082389  0.65647006     0.55100
H1515       H  0.74527982  0.00169748  0.69768896     0.08200
C1516       C  0.73622807  0.99149529  0.76655743    -0.05600
C1517       C  0.73711577  0.97365377  0.78258126    -0.06300
C1518       C  0.75483668  0.96264217  0.78528374    -0.15900
C1519       C  0.77245210  0.96984785  0.77173311    -0.01500
C1520       C  0.77149037  0.98779106  0.75591892    -0.09100
C1521       C  0.71652789  0.00232032  0.76282901     0.65200
H1522       H  0.72373844  0.96796552  0.79274804     0.10700
C1523       C  0.79210405  0.95866205  0.77318336     0.63600
H1524       H  0.78461853  0.99361901  0.74521118     0.08000
F1525       F  0.73865456  0.01150257  0.64974550    -0.19400
F1526       F  0.76074452  0.03537647  0.63951723    -0.15700
F1527       F  0.72879333  0.04338723  0.64941983    -0.19100
F1528       F  0.78367616  0.02579267  0.78389947    -0.22500
F1529       F  0.75203888  0.03006180  0.79836521    -0.24000
F1530       F  0.77095716  0.05655815  0.78792602    -0.18000
F1531       F  0.78975883  0.93954926  0.76225030    -0.20500
F1532       F  0.79864046  0.95774269  0.80170257    -0.21600
F1533       F  0.80678590  0.96796768  0.75703442    -0.18800
F1534       F  0.70167373  0.99385744  0.77960968    -0.18900
F1535       F  0.71072818  0.00142972  0.73399369    -0.22700
F1536       F  0.71831730  0.02211100  0.77092910    -0.24400
C1537       C  0.64999024  0.67542857  0.78558582    -0.11200
C1538       C  0.65175377  0.67547995  0.75529493     0.11400
C1539       C  0.63947713  0.68806031  0.73836752    -0.03000
C1540       C  0.62664223  0.70137833  0.75274316    -0.05700
C1541       C  0.62559807  0.70228430  0.78333810    -0.16500
C1542       C  0.63717081  0.68864797  0.80014143     0.02400
C1543       C  0.66717962  0.66263343  0.74200641     0.12400
C1544       C  0.64004424  0.68737093  0.70531264     0.63000
H1545       H  0.61752326  0.71146188  0.74001252     0.12400
C1546       C  0.63634352  0.68789041  0.83319465     0.55100
H1547       H  0.65931815  0.66522520  0.79779762     0.08200
C1548       C  0.68727048  0.66877958  0.74056220    -0.05600
C1549       C  0.70105327  0.65618659  0.72686468    -0.06300
C1550       C  0.69535659  0.63785685  0.71462278    -0.15900
C1551       C  0.67534079  0.63139977  0.71699244    -0.01500
C1552       C  0.66156627  0.64396700  0.73095383    -0.09100
C1553       C  0.69408471  0.68858510  0.75331053     0.65200
H1554       H  0.71644317  0.66078056  0.72510804     0.10700
C1555       C  0.66856650  0.61128492  0.70540364     0.63600
H1556       H  0.64615727  0.63949093  0.73297242     0.08000
F1557       F  0.64367562  0.70549670  0.84471783    -0.19400
F1558       F  0.64762822  0.67239760  0.84440911    -0.15700
F1559       F  0.61694205  0.68500289  0.84219455    -0.19100
F1560       F  0.63425454  0.66866390  0.69581575    -0.22500
F1561       F  0.65907851  0.69119854  0.69548721    -0.24000
F1562       F  0.62740882  0.70131048  0.69293880    -0.18000
F1563       F  0.68086433  0.59634524  0.71585585    -0.20500
F1564       F  0.66909654  0.61137849  0.67532782    -0.21600
F1565       F  0.64932665  0.60685987  0.71388095    -0.18800
F1566       F  0.71409809  0.69198001  0.74839733    -0.18900
F1567       F  0.69101683  0.68866661  0.78304384    -0.22700
F1568       F  0.68353319  0.70412378  0.74089611    -0.24400
C1569       C  0.63555352  0.83269296  0.81917380    -0.11200
C1570       C  0.65571380  0.82860874  0.81456193     0.11400
C1571       C  0.66200823  0.80886777  0.80886709    -0.03000
C1572       C  0.64772959  0.79365662  0.80836337    -0.05700
C1573       C  0.62749844  0.79744846  0.81365202    -0.16500
C1574       C  0.62113017  0.81745530  0.81855562     0.02400
C1575       C  0.67024654  0.84500504  0.81777740     0.12400
C1576       C  0.68380786  0.80377697  0.80412366     0.63000
H1577       H  0.65246214  0.77844540  0.80438985     0.12400
C1578       C  0.59946242  0.82288643  0.82351309     0.55100
H1579       H  0.63129921  0.84798470  0.82371562     0.08200
C1580       C  0.67534647  0.85772454  0.79443416    -0.05600
C1581       C  0.69120245  0.87115894  0.79824809    -0.06300
C1582       C  0.70186525  0.87212686  0.82457160    -0.15900
C1583       C  0.69563905  0.86036248  0.84861858    -0.01500
C1584       C  0.67976232  0.84702943  0.84471206    -0.09100
C1585       C  0.66418678  0.85692488  0.76568499     0.65200
H1586       H  0.69580614  0.88054042  0.78032487     0.10700
C1587       C  0.70561746  0.86161464  0.87825749     0.63600
H1588       H  0.67516326  0.83736783  0.86234378     0.08000
F1589       F  0.58832905  0.81754196  0.79941817    -0.19400
F1590       F  0.59691142  0.84319091  0.82785296    -0.15700
F1591       F  0.59233810  0.81313171  0.84789872    -0.19100
F1592       F  0.69450797  0.80771352  0.82915603    -0.22500
F1593       F  0.69146399  0.81502775  0.78156946    -0.24000
F1594       F  0.68646762  0.78383316  0.79719785    -0.18000
F1595       F  0.70725796  0.88135643  0.88683312    -0.20500
F1596       F  0.72429626  0.85305271  0.87693159    -0.21600
F1597       F  0.69486601  0.85162566  0.89941034    -0.18800
F1598       F  0.67142902  0.87072380  0.74593323    -0.18900
F1599       F  0.64431173  0.86104419  0.77031670    -0.22700
F1600       F  0.66587173  0.83816520  0.75340071    -0.24400
C1601       C  0.33626859  0.68993751  0.73071988    -0.11200
C1602       C  0.34439657  0.67079713  0.73355769     0.11400
C1603       C  0.36293075  0.66626152  0.72074134    -0.03000
C1604       C  0.37287772  0.68139104  0.70535140    -0.05700
C1605       C  0.36491381  0.70071580  0.70294472    -0.16500
C1606       C  0.34635894  0.70522374  0.71606412     0.02400
C1607       C  0.33245472  0.65584242  0.74938043     0.12400
C1608       C  0.37194925  0.64552826  0.72291276     0.63000
H1609       H  0.38696026  0.67822592  0.69498009     0.12400
C1610       C  0.33691099  0.72582709  0.71420220     0.55100
H1611       H  0.32188119  0.69279049  0.74040271     0.08200
C1612       C  0.33077598  0.65620019  0.78005718    -0.05600
C1613       C  0.31652933  0.64388091  0.79328132    -0.06300
C1614       C  0.30381102  0.63173687  0.77672558    -0.15900
C1615       C  0.30643532  0.63044740  0.74615496    -0.01500
C1616       C  0.32072558  0.64274332  0.73296783    -0.09100
C1617       C  0.34350693  0.67000369  0.79859754     0.65200
H1618       H  0.31444571  0.64452732  0.81665410     0.10700
C1619       C  0.29432467  0.61625489  0.72742958     0.63600
H1620       H  0.32223367  0.64291451  0.70948077     0.08000
F1621       F  0.31803344  0.72615145  0.72615386    -0.19400
F1622       F  0.33531346  0.73166038  0.68542108    -0.15700
F1623       F  0.34838613  0.73947102  0.72931271    -0.19100
F1624       F  0.36048438  0.63214259  0.70734686    -0.22500
F1625       F  0.37276007  0.63948670  0.75165206    -0.24000
F1626       F  0.39107770  0.64500404  0.71187240    -0.18000
F1627       F  0.30209418  0.61462398  0.69963417    -0.20500
F1628       F  0.27501365  0.62310234  0.72502246    -0.21600
F1629       F  0.29431583  0.59739319  0.73973766    -0.18800
F1630       F  0.34070816  0.66664838  0.82803517    -0.18900
F1631       F  0.33873944  0.68969618  0.79291204    -0.22700
F1632       F  0.36338399  0.66698016  0.79248366    -0.24400
C1633       C  0.34705846  0.82533312  0.63830587    -0.11200
C1634       C  0.32816959  0.82249556  0.65032976     0.11400
C1635       C  0.32273686  0.80362293  0.66159371    -0.03000
C1636       C  0.33695942  0.78828173  0.66156472    -0.05700
C1637       C  0.35610360  0.79113831  0.65006131    -0.16500
C1638       C  0.36120342  0.80988571  0.63771437     0.02400
C1639       C  0.31391830  0.83927259  0.64907722     0.12400
C1640       C  0.30192607  0.79964562  0.67309040     0.63000
H1641       H  0.33316203  0.77381872  0.67051511     0.12400
C1642       C  0.38104232  0.81344818  0.62287187     0.55100
H1643       H  0.35052056  0.83980736  0.62910277     0.08200
C1644       C  0.31319077  0.85419126  0.67081327    -0.05600
C1645       C  0.29818980  0.86878455  0.66910440    -0.06300
C1646       C  0.28459956  0.86916373  0.64585547    -0.15900
C1647       C  0.28674337  0.85536691  0.62263046    -0.01500
C1648       C  0.30124002  0.84037339  0.62497934    -0.09100
C1649       C  0.32841926  0.85482811  0.69523224     0.65200
H1650       H  0.29684014  0.87990670  0.68609583     0.10700
C1651       C  0.27452231  0.85693662  0.59489715     0.63600
H1652       H  0.30275644  0.82922340  0.60804925     0.08000
F1653       F  0.39623051  0.81264915  0.64311974    -0.19400
F1654       F  0.38181554  0.83196714  0.60952264    -0.15700
F1655       F  0.38408325  0.79907657  0.60169520    -0.19100
F1656       F  0.28818620  0.80230934  0.65104117    -0.22500
F1657       F  0.29760746  0.81263384  0.69557935    -0.24000
F1658       F  0.29991721  0.78033910  0.68348527    -0.18000
F1659       F  0.28152843  0.84425605  0.57342916    -0.20500
F1660       F  0.27546045  0.87624298  0.58422902    -0.21600
F1661       F  0.25496147  0.85193913  0.60037798    -0.18800
F1662       F  0.32483198  0.87037480  0.71437511    -0.18900
F1663       F  0.34718037  0.85747200  0.68361029    -0.22700
F1664       F  0.32808823  0.83717819  0.71081522    -0.24400
C1665       C  0.48112854  0.73582083  0.70862256    -0.11200
C1666       C  0.48076419  0.74727516  0.73409947     0.11400
C1667       C  0.46342645  0.75794309  0.74171492    -0.03000
C1668       C  0.44660845  0.75617031  0.72377455    -0.05700
C1669       C  0.44670352  0.74437045  0.69842026    -0.16500
C1670       C  0.46435193  0.73400896  0.69055584     0.02400
C1671       C  0.49916735  0.74822266  0.75170022     0.12400
C1672       C  0.46285352  0.77152336  0.76819307     0.63000
H1673       H  0.43317326  0.76418616  0.72945680     0.12400
C1674       C  0.46581201  0.72135700  0.66319325     0.55100
H1675       H  0.49482609  0.72816860  0.70312440     0.08200
C1676       C  0.50484507  0.73254906  0.77059922    -0.05600
C1677       C  0.52334001  0.73376176  0.78467061    -0.06300
C1678       C  0.53635284  0.74985650  0.78000076    -0.15900
C1679       C  0.53029979  0.76587146  0.76166222    -0.01500
C1680       C  0.51175123  0.76461788  0.74770151    -0.09100
C1681       C  0.49155960  0.71451150  0.77552526     0.65200
H1682       H  0.52805073  0.72170859  0.79884200     0.10700
C1683       C  0.54315106  0.78420338  0.75656017     0.63600
H1684       H  0.50705951  0.77626528  0.73278526     0.08000
F1685       F  0.45341551  0.70497158  0.66554900    -0.19400
F1686       F  0.48492534  0.71435293  0.65864350    -0.15700
F1687       F  0.46047520  0.73259666  0.63915992    -0.19100
F1688       F  0.47519492  0.78772381  0.76367792    -0.22500
F1689       F  0.46913460  0.76132053  0.79268448    -0.24000
F1690       F  0.44388335  0.77864140  0.77353306    -0.18000
F1691       F  0.55965103  0.77900094  0.74032765    -0.20500
F1692       F  0.54910989  0.79222761  0.78291081    -0.21600
F1693       F  0.53301227  0.79895849  0.74151946    -0.18800
F1694       F  0.49947517  0.70155291  0.79596765    -0.18900
F1695       F  0.48920845  0.70408739  0.74980086    -0.22700
F1696       F  0.47313430  0.72063105  0.78535268    -0.24400
C1697       C  0.16599883  0.15146207  0.19893103    -0.11200
C1698       C  0.16936811  0.15491623  0.22858449     0.11400
C1699       C  0.18598767  0.14613147  0.24239616    -0.03000
C1700       C  0.19966321  0.13539682  0.22532964    -0.05700
C1701       C  0.19698399  0.13277803  0.19517286    -0.16500
C1702       C  0.17950515  0.14051182  0.18178852     0.02400
C1703       C  0.15592118  0.16892098  0.24412617     0.12400
C1704       C  0.18920095  0.14813435  0.27500184     0.63000
H1705       H  0.21271670  0.12901047  0.23554095     0.12400
C1706       C  0.17524882  0.13791283  0.14952545     0.55100
H1707       H  0.15288921  0.15803996  0.18914874     0.08200
C1708       C  0.15861134  0.18982856  0.24227072    -0.05600
C1709       C  0.14557490  0.20235618  0.25758862    -0.06300
C1710       C  0.13002488  0.19479349  0.27478852    -0.15900
C1711       C  0.12731887  0.17372815  0.27656923    -0.01500
C1712       C  0.14029669  0.16118772  0.26082021    -0.09100
C1713       C  0.17521951  0.19887807  0.22414064     0.65200
H1714       H  0.14763303  0.21841030  0.25637201     0.10700
C1715       C  0.11085460  0.16438662  0.29459842     0.63600
H1716       H  0.13850304  0.14508514  0.26158204     0.08000
F1717       F  0.15783435  0.14734387  0.14120444    -0.19400
F1718       F  0.17325577  0.11783318  0.14309535    -0.15700
F1719       F  0.19058185  0.14601188  0.13333438    -0.19100
F1720       F  0.17358533  0.13925758  0.28963010    -0.22500
F1721       F  0.19020000  0.16805455  0.28275500    -0.24000
F1722       F  0.20661517  0.13898303  0.28395868    -0.18000
F1723       F  0.09263884  0.17186878  0.28585367    -0.20500
F1724       F  0.11385964  0.16854129  0.32375311    -0.21600
F1725       F  0.11028697  0.14381956  0.29153748    -0.18800
F1726       F  0.17590350  0.21946712  0.22673938    -0.18900
F1727       F  0.17233833  0.19431630  0.19511232    -0.22700
F1728       F  0.19338186  0.19138292  0.23302332    -0.24400
C1729       C  0.22466887  0.08931121  0.95109871    -0.11200
C1730       C  0.24228103  0.09379869  0.96598924     0.11400
C1731       C  0.25992351  0.09740079  0.95012320    -0.03000
C1732       C  0.25882258  0.09840013  0.91960176    -0.05700
C1733       C  0.24083767  0.09546175  0.90457693    -0.16500
C1734       C  0.22362368  0.08981135  0.92049637     0.02400
C1735       C  0.24166439  0.09517436  0.99823311     0.12400
C1736       C  0.27972245  0.10051616  0.96540021     0.63000
H1737       H  0.27202150  0.10213536  0.90726010     0.12400
C1738       C  0.20436422  0.08389523  0.90555204     0.55100
H1739       H  0.21154087  0.08587647  0.96381806     0.08200
C1740       C  0.23517152  0.11272226  0.01249097    -0.05600
C1741       C  0.23548027  0.11327406  0.04308690    -0.06300
C1742       C  0.24227768  0.09701655  0.05974205    -0.15900
C1743       C  0.24863597  0.07935889  0.04530303    -0.01500
C1744       C  0.24783877  0.07868626  0.01467727    -0.09100
C1745       C  0.22780138  0.13070888  0.99539806     0.65200
H1746       H  0.23056214  0.12662254  0.05428521     0.10700
C1747       C  0.25622891  0.06127189  0.06186134     0.63600
H1748       H  0.25247043  0.06537230  0.00314038     0.08000
F1749       F  0.19552293  0.10047098  0.89312443    -0.19400
F1750       F  0.19094377  0.07561752  0.92493006    -0.15700
F1751       F  0.20821371  0.06979810  0.88426945    -0.19100
F1752       F  0.28427357  0.08395367  0.98207976    -0.22500
F1753       F  0.27874995  0.11712225  0.98320394    -0.24000
F1754       F  0.29508781  0.10330565  0.94580205    -0.18000
F1755       F  0.25943221  0.04510635  0.04367733    -0.20500
F1756       F  0.24251880  0.05556127  0.08267187    -0.21600
F1757       F  0.27409317  0.06588774  0.07516115    -0.18800
F1758       F  0.22380608  0.14682548  0.01333273    -0.18900
F1759       F  0.21050495  0.12579630  0.98080963    -0.22700
F1760       F  0.24196565  0.13662942  0.97540298    -0.24400
C1761       C  0.14459880  0.81981830  0.24376970    -0.11200
C1762       C  0.14977877  0.83759587  0.22970169     0.11400
C1763       C  0.14258480  0.84154247  0.20136526    -0.03000
C1764       C  0.13040484  0.82723357  0.18786081    -0.05700
C1765       C  0.12535138  0.80916725  0.20166698    -0.16500
C1766       C  0.13230455  0.80549855  0.23046425     0.02400
C1767       C  0.16460423  0.85063894  0.24405140     0.12400
C1768       C  0.14791776  0.86067618  0.18534870     0.63000
H1769       H  0.12498672  0.82998066  0.16608329     0.12400
C1770       C  0.12737133  0.78652036  0.24712702     0.55100
H1771       H  0.15074491  0.81708555  0.26515044     0.08200
C1772       C  0.15967321  0.86382069  0.26694156    -0.05600
C1773       C  0.17491198  0.87532883  0.27961390    -0.06300
C1774       C  0.19482025  0.87366795  0.27048278    -0.15900
C1775       C  0.19970474  0.85983513  0.24801982    -0.01500
C1776       C  0.18438095  0.84859889  0.23531060    -0.09100
C1777       C  0.13852436  0.86536248  0.27825499     0.65200
H1778       H  0.17137522  0.88556258  0.29706968     0.10700
C1779       C  0.22089870  0.85631859  0.23769330     0.63600
H1780       H  0.18767002  0.83790530  0.21833338     0.08000
F1781       F  0.10704350  0.78518264  0.25111966    -0.19400
F1782       F  0.13617057  0.78615913  0.27437880    -0.15700
F1783       F  0.13411933  0.77003161  0.23191936    -0.19100
F1784       F  0.16817006  0.86149670  0.18056118    -0.22500
F1785       F  0.14226935  0.87703037  0.20171567    -0.24000
F1786       F  0.13851555  0.86194773  0.15859278    -0.18000
F1787       F  0.22205751  0.84105631  0.21743150    -0.20500
F1788       F  0.23281305  0.85105251  0.26102106    -0.21600
F1789       F  0.22817761  0.87343733  0.22467313    -0.18800
F1790       F  0.13663377  0.88012879  0.29914977    -0.18900
F1791       F  0.13294941  0.84742388  0.29069369    -0.22700
F1792       F  0.12566099  0.86977930  0.25568067    -0.24400
C1793       C  0.24423150  0.93314976  0.44831671    -0.11200
C1794       C  0.23933410  0.91636502  0.46502146     0.11400
C1795       C  0.23433098  0.89819401  0.45110537    -0.03000
C1796       C  0.23397334  0.89761686  0.42055378    -0.05700
C1797       C  0.23925632  0.91427433  0.40367600    -0.16500
C1798       C  0.24491334  0.93229221  0.41773025     0.02400
C1799       C  0.23935640  0.91821830  0.49715414     0.12400
C1800       C  0.22990305  0.87935823  0.46842813     0.63000
H1801       H  0.23000720  0.88391818  0.40955271     0.12400
C1802       C  0.25141895  0.95059474  0.40077836     0.55100
H1803       H  0.24782540  0.94687561  0.45957687     0.08200
C1804       C  0.25711846  0.91744369  0.51359873    -0.05600
C1805       C  0.25577565  0.91733847  0.54412904    -0.06300
C1806       C  0.23732472  0.91783974  0.55845632    -0.15900
C1807       C  0.21958971  0.91956342  0.54185193    -0.01500
C1808       C  0.22106892  0.92005895  0.51137335    -0.09100
C1809       C  0.27734297  0.91659944  0.49894991     0.65200
H1810       H  0.26914195  0.91633596  0.55703327     0.10700
C1811       C  0.19924260  0.92080623  0.55600824     0.63600
H1812       H  0.20758405  0.92109728  0.49797558     0.08000
F1813       F  0.25446890  0.96692786  0.41871279    -0.19400
F1814       F  0.23696023  0.95564858  0.38071618    -0.15700
F1815       F  0.26910186  0.94664366  0.38658238    -0.19100
F1816       F  0.21345257  0.88222556  0.48589112    -0.22500
F1817       F  0.24604543  0.87460451  0.48573616    -0.24000
F1818       F  0.22606953  0.86319563  0.45049880    -0.18000
F1819       F  0.18452356  0.92536537  0.53599368    -0.20500
F1820       F  0.19918644  0.93555167  0.57709323    -0.21600
F1821       F  0.19452928  0.90264158  0.56853883    -0.18800
F1822       F  0.29260461  0.91466681  0.51897791    -0.18900
F1823       F  0.28051902  0.93396568  0.48338061    -0.22700
F1824       F  0.27824497  0.90048574  0.48018997    -0.24400
C1825       C  0.23992217  0.99464994  0.26650261    -0.11200
C1826       C  0.24076598  0.99362948  0.23607486     0.11400
C1827       C  0.24163656  0.97484400  0.22205667    -0.03000
C1828       C  0.24079952  0.95748912  0.23920815    -0.05700
C1829       C  0.23932396  0.95846285  0.26963800    -0.16500
C1830       C  0.23921807  0.97730255  0.28369130     0.02400
C1831       C  0.24129525  0.01258607  0.21949955     0.12400
C1832       C  0.24376643  0.97321954  0.18922841     0.63000
H1833       H  0.24130483  0.94290282  0.22892563     0.12400
C1834       C  0.23921406  0.97907338  0.31661198     0.55100
H1835       H  0.23980350  0.00927154  0.27667140     0.08200
C1836       C  0.22380338  0.02323713  0.21260006    -0.05600
C1837       C  0.22548075  0.04109333  0.19672470    -0.06300
C1838       C  0.24405592  0.04892509  0.18839483    -0.15900
C1839       C  0.26165293  0.03822082  0.19581843    -0.01500
C1840       C  0.25983481  0.02016382  0.21128479    -0.09100
C1841       C  0.20350694  0.01597453  0.22254035     0.65200
H1842       H  0.21217396  0.04936103  0.19138716     0.10700
C1843       C  0.28230366  0.04554233  0.18777127     0.63600
H1844       H  0.27293160  0.01178585  0.21743409     0.08000
F1845       F  0.22139127  0.97213589  0.32759359    -0.19400
F1846       F  0.24157114  0.99864426  0.32568315    -0.15700
F1847       F  0.25472688  0.96798880  0.32804008    -0.19100
F1848       F  0.26166993  0.98145146  0.18069657    -0.22500
F1849       F  0.22845455  0.98329679  0.17555296    -0.24000
F1850       F  0.24334166  0.95356021  0.17993353    -0.18000
F1851       F  0.28635716  0.06317339  0.20228152    -0.20500
F1852       F  0.28346509  0.04857345  0.15804344    -0.21600
F1853       F  0.29691060  0.03190706  0.19531175    -0.18800
F1854       F  0.18835770  0.02826143  0.21276245    -0.18900
F1855       F  0.20279969  0.01563428  0.25259944    -0.22700
F1856       F  0.19997532  0.99694888  0.21209817    -0.24400
C1857       C  0.34628308  0.31846774  0.24740112    -0.11200
C1858       C  0.34145862  0.33632921  0.23326047     0.11400
C1859       C  0.35066756  0.34121394  0.20658636    -0.03000
C1860       C  0.36380707  0.32733906  0.19413525    -0.05700
C1861       C  0.36804349  0.30891337  0.20753285    -0.16500
C1862       C  0.35914012  0.30435927  0.23483426     0.02400
C1863       C  0.32615814  0.34923935  0.24673883     0.12400
C1864       C  0.34670709  0.36100015  0.19146308     0.63000
H1865       H  0.37087058  0.33083765  0.17358852     0.12400
C1866       C  0.36240679  0.28458162  0.25038174     0.55100
H1867       H  0.33927604  0.31543608  0.26816544     0.08200
C1868       C  0.30570485  0.34455678  0.24481711    -0.05600
C1869       C  0.29206224  0.35683135  0.25933629    -0.06300
C1870       C  0.29810666  0.37356250  0.27555617    -0.15900
C1871       C  0.31866141  0.37846668  0.27693781    -0.01500
C1872       C  0.33235475  0.36592158  0.26272388    -0.09100
C1873       C  0.29826805  0.32674576  0.22737230     0.65200
H1874       H  0.27637948  0.35320035  0.25836351     0.10700
C1875       C  0.32626239  0.39688686  0.29271382     0.63600
H1876       H  0.34815921  0.36892554  0.26412299     0.08000
F1877       F  0.35118823  0.28310695  0.27554177    -0.19400
F1878       F  0.38217380  0.28268579  0.25815990    -0.15700
F1879       F  0.35696189  0.26895719  0.23235158    -0.19100
F1880       F  0.35375199  0.37647591  0.20848696    -0.22500
F1881       F  0.32653926  0.36352461  0.18703237    -0.24000
F1882       F  0.35602992  0.36208459  0.16466131    -0.18000
F1883       F  0.34644649  0.39969549  0.28850219    -0.20500
F1884       F  0.32304189  0.39497271  0.32229628    -0.21600
F1885       F  0.31656891  0.41368864  0.28240534    -0.18800
F1886       F  0.27772940  0.32546526  0.22751279    -0.18900
F1887       F  0.30563980  0.30920520  0.23896733    -0.22700
F1888       F  0.30439723  0.32843208  0.19877784    -0.24400
C1889       C  0.40819843  0.25850084  0.02392946    -0.11200
C1890       C  0.41290833  0.27702090  0.01152946     0.11400
C1891       C  0.41772929  0.29338085  0.02970769    -0.03000
C1892       C  0.41748924  0.29059678  0.06004430    -0.05700
C1893       C  0.41272443  0.27205645  0.07254851    -0.16500
C1894       C  0.40831960  0.25555987  0.05423169     0.02400
C1895       C  0.41199447  0.27889903  0.97936450     0.12400
C1896       C  0.42266391  0.31378161  0.01716420     0.63000
H1897       H  0.42064513  0.30305978  0.07431801     0.12400
C1898       C  0.40309835  0.23511728  0.06641880     0.55100
H1899       H  0.40419848  0.24636880  0.00951136     0.08200
C1900       C  0.42672068  0.27061286  0.96102557    -0.05600
C1901       C  0.42428769  0.27219804  0.93069316    -0.06300
C1902       C  0.40782891  0.28198699  0.91831505    -0.15900
C1903       C  0.39341592  0.29085143  0.93686807    -0.01500
C1904       C  0.39563651  0.28875232  0.96714850    -0.09100
C1905       C  0.44478377  0.25997470  0.97346939     0.65200
H1906       H  0.43515574  0.26548570  0.91632501     0.10700
C1907       C  0.37544847  0.30198241  0.92505033     0.63600
H1908       H  0.38444861  0.29464986  0.98173067     0.08000
F1909       F  0.41921537  0.22743110  0.08140280    -0.19400
F1910       F  0.39819050  0.22166997  0.04469407    -0.15700
F1911       F  0.38698337  0.23666032  0.08496386    -0.19100
F1912       F  0.40584561  0.32210288  0.00484506    -0.22500
F1913       F  0.43722556  0.31202291  0.99610763    -0.24000
F1914       F  0.42956627  0.32675948  0.03833041    -0.18000
F1915       F  0.36302908  0.30856932  0.94704830    -0.20500
F1916       F  0.36450567  0.28956092  0.90709928    -0.21600
F1917       F  0.38164977  0.31857027  0.90958763    -0.18800
F1918       F  0.45840013  0.25513255  0.95204426    -0.18900
F1919       F  0.43900051  0.24248348  0.98698680    -0.22700
F1920       F  0.45421673  0.27210983  0.99353801    -0.24400
C1921       C  0.35365383  0.18641167  0.15992542    -0.11200
C1922       C  0.33353032  0.19168941  0.16079085     0.11400
C1923       C  0.32800673  0.21198872  0.16330896    -0.03000
C1924       C  0.34304295  0.22653333  0.16373544    -0.05700
C1925       C  0.36328518  0.22140096  0.16226483    -0.16500
C1926       C  0.36876843  0.20093790  0.16056155     0.02400
C1927       C  0.31852349  0.17555259  0.15897311     0.12400
C1928       C  0.30634060  0.21822583  0.16560486     0.63000
H1929       H  0.33905033  0.24214927  0.16542816     0.12400
C1930       C  0.39030831  0.19432467  0.15872368     0.55100
H1931       H  0.35737302  0.17071469  0.15852554     0.08200
C1932       C  0.31195053  0.16793364  0.13193171    -0.05600
C1933       C  0.29666443  0.15364394  0.13177600    -0.06300
C1934       C  0.28878748  0.14591418  0.15773027    -0.15900
C1935       C  0.29635661  0.15262070  0.18486567    -0.01500
C1936       C  0.31097504  0.16765467  0.18494468    -0.09100
C1937       C  0.32155433  0.17433565  0.10351086     0.65200
H1938       H  0.29108634  0.14796812  0.11129581     0.10700
C1939       C  0.28886825  0.14431582  0.21358378     0.63600
H1940       H  0.31670837  0.17340297  0.20528695     0.08000
F1941       F  0.39959600  0.20385403  0.13575182    -0.19400
F1942       F  0.39198953  0.17393993  0.15428127    -0.15700
F1943       F  0.39998571  0.19889947  0.18443196    -0.19100
F1944       F  0.29799123  0.20995529  0.19029229    -0.22500
F1945       F  0.29592660  0.21173891  0.14144982    -0.24000
F1946       F  0.30426065  0.23876579  0.16738517    -0.18000
F1947       F  0.29716238  0.15410086  0.23719529    -0.20500
F1948       F  0.29383358  0.12432892  0.21574544    -0.21600
F1949       F  0.26845003  0.14642339  0.21523344    -0.18800
F1950       F  0.31216919  0.16596034  0.07962551    -0.18900
F1951       F  0.34118708  0.16824084  0.10327565    -0.22700
F1952       F  0.32082399  0.19486181  0.10055887    -0.24400
C1953       C  0.63975775  0.34979130  0.28107356    -0.11200
C1954       C  0.65651627  0.34316252  0.26576161     0.11400
C1955       C  0.66074784  0.32248504  0.26432866    -0.03000
C1956       C  0.64785862  0.30904130  0.27821820    -0.05700
C1957       C  0.63110049  0.31553117  0.29379311    -0.16500
C1958       C  0.62678004  0.33631549  0.29504940     0.02400
C1959       C  0.66982723  0.35813959  0.25199235     0.12400
C1960       C  0.67896849  0.31463993  0.24848295     0.63000
H1961       H  0.65110238  0.29321298  0.27753737     0.12400
C1962       C  0.60848399  0.34434843  0.31044874     0.55100
H1963       H  0.63702941  0.36571523  0.28212384     0.08200
C1964       C  0.66593124  0.36622747  0.22414904    -0.05600
C1965       C  0.68062700  0.37803527  0.21081679    -0.06300
C1966       C  0.69885605  0.38222419  0.22459920    -0.15900
C1967       C  0.70187275  0.37557947  0.25370398    -0.01500
C1968       C  0.68721547  0.36355345  0.26679090    -0.09100
C1969       C  0.64643111  0.36222936  0.20852318     0.65200
H1970       H  0.67814316  0.38361918  0.18902528     0.10700
C1971       C  0.72017996  0.38121331  0.27125874     0.63600
H1972       H  0.68947427  0.35766005  0.28848261     0.08000
F1973       F  0.60605742  0.36465064  0.30592368    -0.19400
F1974       F  0.61016913  0.34123260  0.34009441    -0.15700
F1975       F  0.59166381  0.33481796  0.30007946    -0.19100
F1976       F  0.69600380  0.32141769  0.26209157    -0.22500
F1977       F  0.67886913  0.32115951  0.21994150    -0.24000
F1978       F  0.67959651  0.29397144  0.24822667    -0.18000
F1979       F  0.72259167  0.40173187  0.27094456    -0.20500
F1980       F  0.73684641  0.37212145  0.25971782    -0.21600
F1981       F  0.71860991  0.37526437  0.30003297    -0.18800
F1982       F  0.64579189  0.37128429  0.18144466    -0.18900
F1983       F  0.63084699  0.36965858  0.22483746    -0.22700
F1984       F  0.64382968  0.34192877  0.20463822    -0.24400
C1985       C  0.57158443  0.26670951  0.47025707    -0.11200
C1986       C  0.58858777  0.27184484  0.48627942     0.11400
C1987       C  0.60636063  0.27684987  0.47161345    -0.03000
C1988       C  0.60633192  0.27708956  0.44107282    -0.05700
C1989       C  0.58946929  0.27169026  0.42481445    -0.16500
C1990       C  0.57168394  0.26645181  0.43956560     0.02400
C1991       C  0.58774869  0.27086799  0.51848790     0.12400
C1992       C  0.62549771  0.28118174  0.48810189     0.63000
H1993       H  0.61984847  0.28082526  0.42956454     0.12400
C1994       C  0.55284259  0.26096181  0.42324135     0.55100
H1995       H  0.55829710  0.26262613  0.48210564     0.08200
C1996       C  0.58135369  0.28721506  0.53558368    -0.05600
C1997       C  0.58256193  0.28566361  0.56608105    -0.06300
C1998       C  0.58971380  0.26830323  0.57969342    -0.15900
C1999       C  0.59568178  0.25176014  0.56246330    -0.01500
C2000       C  0.59428951  0.25330231  0.53200939    -0.09100
C2001       C  0.57346255  0.30620466  0.52161951     0.65200
H2002       H  0.57806352  0.29810690  0.57961056     0.10700
C2003       C  0.60455412  0.23301272  0.57590397     0.63600
H2004       H  0.59889287  0.24098229  0.51831284     0.08000
F2005       F  0.53678837  0.25880895  0.44181323    -0.19400
F2006       F  0.55551360  0.24305496  0.40879641    -0.15700
F2007       F  0.54823183  0.27577332  0.40336986    -0.19100
F2008       F  0.63147649  0.26427439  0.50297872    -0.22500
F2009       F  0.62264187  0.29650513  0.50778240    -0.24000
F2010       F  0.64074809  0.28673659  0.46959589    -0.18000
F2011       F  0.59036680  0.22323204  0.59231330    -0.20500
F2012       F  0.62050045  0.23806369  0.59346096    -0.21600
F2013       F  0.61134081  0.21982179  0.55494344    -0.18800
F2014       F  0.56782025  0.32016928  0.54223412    -0.18900
F2015       F  0.55705172  0.30181433  0.50467938    -0.22700
F2016       F  0.58789183  0.31474766  0.50424889    -0.24400
C2017       C  0.51347527  0.28749666  0.27640714    -0.11200
C2018       C  0.51166111  0.27445063  0.25279329     0.11400
C2019       C  0.52736457  0.26123720  0.24603920    -0.03000
C2020       C  0.54421006  0.26093377  0.26422433    -0.05700
C2021       C  0.54595189  0.27359479  0.28859221    -0.16500
C2022       C  0.53023465  0.28723415  0.29477765     0.02400
C2023       C  0.49260069  0.27417607  0.23650161     0.12400
C2024       C  0.52630671  0.24765206  0.21958474     0.63000
H2025       H  0.55629709  0.25083314  0.25926628     0.12400
C2026       C  0.53061074  0.30115439  0.32089091     0.55100
H2027       H  0.50130134  0.29765616  0.28063949     0.08200
C2028       C  0.47587395  0.26370750  0.24717615    -0.05600
C2029       C  0.45859692  0.26305225  0.23006582    -0.06300
C2030       C  0.45729385  0.27302415  0.20324140    -0.15900
C2031       C  0.47391360  0.28403958  0.19292776    -0.01500
C2032       C  0.49136272  0.28438271  0.20992028    -0.09100
C2033       C  0.47619942  0.25348505  0.27671099     0.65200
H2034       H  0.44571017  0.25501662  0.23790897     0.10700
C2035       C  0.47354403  0.29497488  0.16395580     0.63600
H2036       H  0.50428072  0.29259314  0.20259759     0.08000
F2037       F  0.51310919  0.31187433  0.32362580    -0.19400
F2038       F  0.54593882  0.31475956  0.31802168    -0.15700
F2039       F  0.53311292  0.29016231  0.34611707    -0.19100
F2040       F  0.52559833  0.25909059  0.19455169    -0.22500
F2041       F  0.50948445  0.23583267  0.22093205    -0.24000
F2042       F  0.54267014  0.23519306  0.21771053    -0.18000
F2043       F  0.46016524  0.31062831  0.16518534    -0.20500
F2044       F  0.46808242  0.28195391  0.14197788    -0.21600
F2045       F  0.49195775  0.30282375  0.15692835    -0.18800
F2046       F  0.45875840  0.24318620  0.28214163    -0.18900
F2047       F  0.47851295  0.26761244  0.29838142    -0.22700
F2048       F  0.49175141  0.24002370  0.27807348    -0.24400
C2049       C  0.83280853  0.86390707  0.21099685    -0.11200
C2050       C  0.82666305  0.85211534  0.23451886     0.11400
C2051       C  0.80656922  0.85274404  0.24361776    -0.03000
C2052       C  0.79305439  0.86443890  0.22767600    -0.05700
C2053       C  0.79889235  0.87542448  0.20305814    -0.16500
C2054       C  0.81924001  0.87542779  0.19472814     0.02400
C2055       C  0.84149148  0.83895675  0.24901178     0.12400
C2056       C  0.79937206  0.84103241  0.26993699     0.63000
H2057       H  0.77757169  0.86480577  0.23416021     0.12400
C2058       C  0.82677590  0.88754722  0.16906993     0.55100
H2059       H  0.84840012  0.86363051  0.20509841     0.08200
C2060       C  0.84775412  0.82068557  0.23651513    -0.05600
C2061       C  0.86054155  0.80824189  0.25261619    -0.06300
C2062       C  0.86686403  0.81321815  0.28090712    -0.15900
C2063       C  0.86067947  0.83172463  0.29319664    -0.01500
C2064       C  0.84861974  0.84452415  0.27646306    -0.09100
C2065       C  0.84052554  0.81409376  0.20666067     0.65200
H2066       H  0.86536663  0.79419679  0.24333639     0.10700
C2067       C  0.86577626  0.83770277  0.32422730     0.63600
H2068       H  0.84397459  0.85881621  0.28512252     0.08000
F2069       F  0.81910879  0.87991149  0.14345230    -0.19400
F2070       F  0.84729583  0.88703485  0.16701518    -0.15700
F2071       F  0.82110238  0.90729873  0.17210665    -0.19100
F2072       F  0.80816993  0.84839734  0.29491490    -0.22500
F2073       F  0.80417360  0.82106527  0.26687912    -0.24000
F2074       F  0.77898481  0.84242335  0.27341928    -0.18000
F2075       F  0.88609100  0.84013875  0.32703526    -0.20500
F2076       F  0.85923188  0.82313950  0.34332232    -0.21600
F2077       F  0.85681833  0.85550435  0.33215035    -0.18800
F2078       F  0.84775731  0.79543091  0.19917477    -0.18900
F2079       F  0.84680120  0.82746949  0.18569899    -0.22700
F2080       F  0.81999705  0.81318562  0.20641445    -0.24400
C2081       C  0.75259057  0.93626810  0.96090729    -0.11200
C2082       C  0.75673386  0.91914794  0.97734656     0.11400
C2083       C  0.76085126  0.90087350  0.96316639    -0.03000
C2084       C  0.76092343  0.90043082  0.93261278    -0.05700
C2085       C  0.75637928  0.91741747  0.91588341    -0.16500
C2086       C  0.75229697  0.93579890  0.93024127     0.02400
C2087       C  0.75533480  0.92031323  0.00947978     0.12400
C2088       C  0.76453747  0.88176807  0.98027464     0.63000
H2089       H  0.76384433  0.88648110  0.92152604     0.12400
C2090       C  0.74779943  0.95489265  0.91362138     0.55100
H2091       H  0.74918893  0.94994357  0.97243818     0.08200
C2092       C  0.77169502  0.92576496  0.02706577    -0.05600
C2093       C  0.76998035  0.92374461  0.05740006    -0.06300
C2094       C  0.75235865  0.91699268  0.07048335    -0.15900
C2095       C  0.73548267  0.91291654  0.05281896    -0.01500
C2096       C  0.73733932  0.91478371  0.02245864    -0.09100
C2097       C  0.79083031  0.93359971  0.01382364     0.65200
H2098       H  0.78256493  0.92723566  0.07122180     0.10700
C2099       C  0.71590101  0.90576356  0.06552945     0.63600
H2100       H  0.72492530  0.91120137  0.00834433     0.08000
F2101       F  0.74657194  0.97127651  0.93192004    -0.19400
F2102       F  0.72979245  0.95312436  0.89932975    -0.15700
F2103       F  0.76272300  0.95857421  0.89364385    -0.19100
F2104       F  0.74779737  0.87689971  0.99616312    -0.22500
F2105       F  0.78035056  0.88429234  0.99912161    -0.24000
F2106       F  0.76888233  0.86581149  0.96222002    -0.18000
F2107       F  0.70789691  0.92049005  0.08304426    -0.20500
F2108       F  0.71895784  0.88860809  0.08171077    -0.21600
F2109       F  0.70208737  0.90138964  0.04408997    -0.18800
F2110       F  0.80471833  0.93842495  0.03494030    -0.18900
F2111       F  0.78688137  0.95063541  0.99784025    -0.22700
F2112       F  0.79910578  0.91938650  0.99572525    -0.24400
C2113       C  0.84646415  0.16959637  0.19554676    -0.11200
C2114       C  0.84458863  0.17181555  0.22571406     0.11400
C2115       C  0.85546587  0.18690038  0.24022260    -0.03000
C2116       C  0.86748582  0.19975670  0.22366811    -0.05700
C2117       C  0.86867504  0.19831251  0.19316831    -0.16500
C2118       C  0.85797604  0.18284414  0.17873503     0.02400
C2119       C  0.83015556  0.15891092  0.24134184     0.12400
C2120       C  0.85393596  0.18974821  0.27295998     0.63000
H2121       H  0.87579320  0.21142819  0.23456483     0.12400
C2122       C  0.85779854  0.18068579  0.14580912     0.55100
H2123       H  0.83814433  0.15771328  0.18515093     0.08200
C2124       C  0.80950479  0.16295343  0.24070389    -0.05600
C2125       C  0.79674573  0.15094951  0.25735483    -0.06300
C2126       C  0.80393401  0.13523977  0.27459562    -0.15900
C2127       C  0.82451882  0.13066910  0.27436487    -0.01500
C2128       C  0.83731736  0.14262250  0.25746018    -0.09100
C2129       C  0.80094367  0.17989505  0.22258437     0.65200
H2130       H  0.78094166  0.15396690  0.25739472     0.10700
C2131       C  0.83286499  0.11299083  0.29108296     0.63600
H2132       H  0.85311198  0.13956895  0.25700454     0.08000
F2133       F  0.84549244  0.16533153  0.13669900    -0.19400
F2134       F  0.87674969  0.17654965  0.13588954    -0.15700
F2135       F  0.85093984  0.19815848  0.13323465    -0.19100
F2136       F  0.86071089  0.17285456  0.28711665    -0.22500
F2137       F  0.83437530  0.19317144  0.28067516    -0.24000
F2138       F  0.86514380  0.20580122  0.28251865    -0.18000
F2139       F  0.85284454  0.11004888  0.28529647    -0.20500
F2140       F  0.82277535  0.09579304  0.28332062    -0.21600
F2141       F  0.83085612  0.11614931  0.32065660    -0.18800
F2142       F  0.78076521  0.18231957  0.22729233    -0.18900
F2143       F  0.80371238  0.17591481  0.19335812    -0.22700
F2144       F  0.81024391  0.19767397  0.22953632    -0.24400
C2145       C  0.78323630  0.08721466  0.45748348    -0.11200
C2146       C  0.76672811  0.09368703  0.47358225     0.11400
C2147       C  0.74949505  0.10042155  0.45884873    -0.03000
C2148       C  0.74938892  0.10048035  0.42830110    -0.05700
C2149       C  0.76612545  0.09483988  0.41210860    -0.16500
C2150       C  0.78325584  0.08762160  0.42677714     0.02400
C2151       C  0.76806553  0.09423352  0.50587797     0.12400
C2152       C  0.73164700  0.10853210  0.47526002     0.63000
H2153       H  0.73646750  0.10601465  0.41675115     0.12400
C2154       C  0.80127125  0.08005826  0.41024352     0.55100
H2155       H  0.79629171  0.08223115  0.46925259     0.08200
C2156       C  0.76340059  0.07747957  0.52336610    -0.05600
C2157       C  0.76237788  0.07997111  0.55380282    -0.06300
C2158       C  0.76698361  0.09830963  0.56704749    -0.15900
C2159       C  0.77302704  0.11465447  0.54956510    -0.01500
C2160       C  0.77328757  0.11234331  0.51912220    -0.09100
C2161       C  0.75968568  0.05713083  0.50983602     0.65200
H2162       H  0.75807644  0.06757555  0.56755491     0.10700
C2163       C  0.77851874  0.13464454  0.56292486     0.63600
H2164       H  0.77721937  0.12479936  0.50525384     0.08000
F2165       F  0.81481095  0.07080587  0.42853137    -0.19400
F2166       F  0.81078517  0.09582309  0.39674119    -0.15700
F2167       F  0.79540460  0.06628245  0.38949861    -0.19100
F2168       F  0.73681232  0.12616973  0.48893248    -0.22500
F2169       F  0.72534623  0.09493162  0.49589683    -0.24000
F2170       F  0.71580134  0.11241402  0.45685151    -0.18000
F2171       F  0.79535753  0.13248689  0.57990799    -0.20500
F2172       F  0.76303374  0.14156219  0.57996075    -0.21600
F2173       F  0.78248575  0.14891733  0.54193224    -0.18800
F2174       F  0.75576389  0.04274965  0.53069702    -0.18900
F2175       F  0.77632658  0.05117427  0.49448697    -0.22700
F2176       F  0.74365133  0.05801861  0.49105402    -0.24400
C2177       C  0.70292481  0.18242070  0.31641096    -0.11200
C2178       C  0.68501318  0.17760677  0.33027556     0.11400
C2179       C  0.68227933  0.15811916  0.34159723    -0.03000
C2180       C  0.69807021  0.14430669  0.33970195    -0.05700
C2181       C  0.71640207  0.14941800  0.32705730    -0.16500
C2182       C  0.71880588  0.16874730  0.31478248     0.02400
C2183       C  0.66933495  0.19332121  0.33216140     0.12400
C2184       C  0.66281119  0.15201866  0.35574991     0.63000
H2185       H  0.69631029  0.12942631  0.34851304     0.12400
C2186       C  0.73784277  0.17491384  0.29949142     0.55100
H2187       H  0.70444420  0.19722646  0.30721037     0.08200
C2188       C  0.67021570  0.20893120  0.35288932    -0.05600
C2189       C  0.65500694  0.22340038  0.35311481    -0.06300
C2190       C  0.63912164  0.22299241  0.33312104    -0.15900
C2191       C  0.63847703  0.20740377  0.31204400    -0.01500
C2192       C  0.65372729  0.19292954  0.31195248    -0.09100
C2193       C  0.68730067  0.21042683  0.37445289     0.65200
H2194       H  0.65556660  0.23536403  0.36894217     0.10700
C2195       C  0.62217377  0.20610548  0.28922578     0.63600
H2196       H  0.65370523  0.18110894  0.29588713     0.08000
F2197       F  0.75304105  0.17663774  0.31960630    -0.19400
F2198       F  0.73585773  0.19312420  0.28551077    -0.15700
F2199       F  0.74289966  0.16082759  0.27875831    -0.19100
F2200       F  0.64751246  0.15330157  0.33574429    -0.22500
F2201       F  0.65872299  0.16448213  0.37896801    -0.24000
F2202       F  0.66342444  0.13258607  0.36599954    -0.18000
F2203       F  0.62512887  0.19035449  0.27019626    -0.20500
F2204       F  0.62172482  0.22350596  0.27299870    -0.21600
F2205       F  0.60400719  0.20322827  0.30262810    -0.18800
F2206       F  0.68475300  0.22607855  0.39377673    -0.18900
F2207       F  0.70492284  0.21355880  0.35972429    -0.22700
F2208       F  0.68875188  0.19296959  0.39037526    -0.24400
C2209       C  0.74727695  0.03124793  0.23846131    -0.11200
C2210       C  0.75866580  0.01539393  0.24917437     0.11400
C2211       C  0.77067571  0.01818038  0.27411764    -0.03000
C2212       C  0.77026771  0.03683790  0.28814858    -0.05700
C2213       C  0.75827353  0.05266539  0.27815680    -0.16500
C2214       C  0.74658513  0.04985361  0.25260358     0.02400
C2215       C  0.75774625  0.99611865  0.23333699     0.12400
C2216       C  0.78356248  0.00144114  0.28614441     0.63000
H2217       H  0.77924945  0.03908389  0.30748614     0.12400
C2218       C  0.73351239  0.06619427  0.23988439     0.55100
H2219       H  0.73864069  0.02872188  0.21884386     0.08200
C2220       C  0.74167694  0.98276476  0.23686724    -0.05600
C2221       C  0.74153559  0.96496705  0.22064368    -0.06300
C2222       C  0.75669755  0.96029932  0.20068810    -0.15900
C2223       C  0.77271499  0.97399742  0.19689944    -0.01500
C2224       C  0.77276188  0.99177628  0.21325954    -0.09100
C2225       C  0.72457158  0.98750318  0.25731018     0.65200
H2226       H  0.72930985  0.95463743  0.22322402     0.10700
C2227       C  0.78983832  0.97009757  0.17607049     0.63600
H2228       H  0.78456564  0.00259538  0.21052908     0.08000
F2229       F  0.72407964  0.06013394  0.21458322    -0.19400
F2230       F  0.74496585  0.08272069  0.23320792    -0.15700
F2231       F  0.71891391  0.07139380  0.25964799    -0.19100
F2232       F  0.79673958  0.99491885  0.26515166    -0.22500
F2233       F  0.77171037  0.98564120  0.29466301    -0.24000
F2234       F  0.79455860  0.00757192  0.31001596    -0.18000
F2235       F  0.80419025  0.98488357  0.17749991    -0.20500
F2236       F  0.78281746  0.96949259  0.14777737    -0.21600
F2237       F  0.79895925  0.95218200  0.18293192    -0.18800
F2238       F  0.71126576  0.97180770  0.25932054    -0.18900
F2239       F  0.71434283  0.00402596  0.24724886    -0.22700
F2240       F  0.73171790  0.99144582  0.28493097    -0.24400
C2241       C  0.63688360  0.68196476  0.24625112    -0.11200
C2242       C  0.65166594  0.67103561  0.23192247     0.11400
C2243       C  0.65285658  0.67151034  0.20119500    -0.03000
C2244       C  0.64016676  0.68450313  0.18589893    -0.05700
C2245       C  0.62642498  0.69672863  0.20045170    -0.16500
C2246       C  0.62409680  0.69485350  0.23101978     0.02400
C2247       C  0.66611270  0.65981581  0.24995073     0.12400
C2248       C  0.66750867  0.65842875  0.18481037     0.63000
H2249       H  0.64135534  0.68569620  0.16242702     0.12400
C2250       C  0.60820062  0.70624683  0.24759220     0.55100
H2251       H  0.63594795  0.68084928  0.26976408     0.08200
C2252       C  0.68342275  0.66906970  0.26107071    -0.05600
C2253       C  0.69662908  0.65759747  0.27784838    -0.06300
C2254       C  0.69238298  0.63774961  0.28550505    -0.15900
C2255       C  0.67449778  0.62879054  0.27548004    -0.01500
C2256       C  0.66180596  0.63999554  0.25735003    -0.09100
C2257       C  0.68740963  0.69118764  0.25633883     0.65200
H2258       H  0.71015974  0.66436226  0.28615918     0.10700
C2259       C  0.66881248  0.60757969  0.28364149     0.63600
H2260       H  0.64811179  0.63350119  0.24914813     0.08000
F2261       F  0.61329268  0.72621327  0.24926232    -0.19400
F2262       F  0.60600919  0.69910289  0.27568059    -0.15700
F2263       F  0.59005454  0.70432057  0.23365753    -0.19100
F2264       F  0.66386484  0.63857741  0.19110331    -0.22500
F2265       F  0.68674800  0.66304189  0.19291016    -0.24000
F2266       F  0.66593953  0.66092256  0.15497993    -0.18000
F2267       F  0.66519883  0.60650952  0.31321728    -0.20500
F2268       F  0.68401704  0.59459744  0.27640570    -0.21600
F2269       F  0.65178960  0.60135270  0.26931934    -0.18800
F2270       F  0.70531648  0.69706304  0.26846954    -0.18900
F2271       F  0.67247852  0.70227888  0.26920159    -0.22700
F2272       F  0.68797246  0.69554069  0.22696088    -0.24400
C2273       C  0.59411817  0.75353143  0.95877348    -0.11200
C2274       C  0.58268709  0.73802458  0.97040124     0.11400
C2275       C  0.57166106  0.72541134  0.95178011    -0.03000
C2276       C  0.57335834  0.72813849  0.92153303    -0.05700
C2277       C  0.58497779  0.74357587  0.90969441    -0.16500
C2278       C  0.59547955  0.75666337  0.92862396     0.02400
C2279       C  0.58272910  0.73554211  0.00237764     0.12400
C2280       C  0.55783168  0.70954887  0.96390636     0.63000
H2281       H  0.56527697  0.71844101  0.90686082     0.12400
C2282       C  0.60841583  0.77361163  0.91738866     0.55100
H2283       H  0.60206222  0.76315371  0.97373107     0.08200
C2284       C  0.59827140  0.72536689  0.01683490    -0.05600
C2285       C  0.59830833  0.72503740  0.04736251    -0.06300
C2286       C  0.58378985  0.73513127  0.06370500    -0.15900
C2287       C  0.56789985  0.74487952  0.04910072    -0.01500
C2288       C  0.56770767  0.74488098  0.01848074    -0.09100
C2289       C  0.61524229  0.71571627  0.00013271     0.65200
H2290       H  0.61038674  0.71772601  0.05871713     0.10700
C2291       C  0.55120879  0.75522006  0.06543828     0.63600
H2292       H  0.55613201  0.75273439  0.00674813     0.08000
F2293       F  0.61876733  0.78296164  0.93959857    -0.19400
F2294       F  0.59663485  0.78784217  0.90402432    -0.15700
F2295       F  0.62219454  0.76633373  0.89773207    -0.19100
F2296       F  0.54281384  0.71862586  0.97958343    -0.22500
F2297       F  0.56813931  0.69673247  0.98204092    -0.24000
F2298       F  0.54918096  0.69828586  0.94204145    -0.18000
F2299       F  0.55834347  0.77226216  0.07883502    -0.20500
F2300       F  0.54339666  0.74244967  0.08615125    -0.21600
F2301       F  0.53590038  0.76083498  0.04700849    -0.18800
F2302       F  0.62785712  0.70514634  0.01831083    -0.18900
F2303       F  0.62626495  0.73030189  0.98628247    -0.22700
F2304       F  0.60789439  0.70259545  0.97955875    -0.24400
C2305       C  0.66254743  0.80530987  0.12683536    -0.11200
C2306       C  0.66566377  0.81548592  0.15309456     0.11400
C2307       C  0.65385038  0.81093159  0.17765075    -0.03000
C2308       C  0.63985643  0.79544949  0.17543893    -0.05700
C2309       C  0.63720323  0.78466314  0.14951496    -0.16500
C2310       C  0.64847195  0.78984967  0.12450948     0.02400
C2311       C  0.68114727  0.83120824  0.15408998     0.12400
C2312       C  0.65586114  0.82254343  0.20592075     0.63000
H2313       H  0.63087897  0.79155465  0.19416377     0.12400
C2314       C  0.64533769  0.77964659  0.09531875     0.55100
H2315       H  0.67143082  0.80953797  0.10816859     0.08200
C2316       C  0.70152981  0.82659349  0.15742739    -0.05600
C2317       C  0.71524700  0.84238619  0.15887001    -0.06300
C2318       C  0.70922002  0.86250060  0.15767836    -0.15900
C2319       C  0.68868350  0.86701362  0.15432205    -0.01500
C2320       C  0.67509163  0.85114314  0.15196548    -0.09100
C2321       C  0.70867675  0.80511738  0.15995458     0.65200
H2322       H  0.73093464  0.83906900  0.16139737     0.10700
C2323       C  0.68095391  0.88830234  0.15300650     0.63600
H2324       H  0.65937741  0.85413296  0.14892783     0.08000
F2325       F  0.65148475  0.75997512  0.09688238    -0.19400
F2326       F  0.65602767  0.78882168  0.07332959    -0.15700
F2327       F  0.62543382  0.78034319  0.08778180    -0.19100
F2328       F  0.65006046  0.84211937  0.20156198    -0.22500
F2329       F  0.67536154  0.82222743  0.21540526    -0.24000
F2330       F  0.64410935  0.81461707  0.22776036    -0.18000
F2331       F  0.66065936  0.88899358  0.14807660    -0.20500
F2332       F  0.69016853  0.89851864  0.13064111    -0.21600
F2333       F  0.68463493  0.89781992  0.17916653    -0.18800
F2334       F  0.72908567  0.80399025  0.16346180    -0.18900
F2335       F  0.70374349  0.79459346  0.13510904    -0.22700
F2336       F  0.69988531  0.79608408  0.18373315    -0.24400
C2337       C  0.33289595  0.65285415  0.19856326    -0.11200
C2338       C  0.32759512  0.66207583  0.22475977     0.11400
C2339       C  0.30876687  0.65830783  0.23718245    -0.03000
C2340       C  0.29556319  0.64562095  0.22241326    -0.05700
C2341       C  0.30049330  0.63663334  0.19567848    -0.16500
C2342       C  0.31980479  0.63989347  0.18382830     0.02400
C2343       C  0.34184574  0.67604385  0.23858562     0.12400
C2344       C  0.30254906  0.66787961  0.26578112     0.63000
H2345       H  0.28098603  0.64299512  0.23154344     0.12400
C2346       C  0.32681740  0.62994197  0.15594090     0.55100
H2347       H  0.34741725  0.65611794  0.18961877     0.08200
C2348       C  0.35764403  0.66925367  0.25630664    -0.05600
C2349       C  0.36924119  0.68343720  0.27109052    -0.06300
C2350       C  0.36561430  0.70402628  0.26853209    -0.15900
C2351       C  0.35002848  0.71082494  0.25006900    -0.01500
C2352       C  0.33863454  0.69656299  0.23502407    -0.09100
C2353       C  0.36219603  0.64715053  0.25954700     0.65200
H2354       H  0.38133767  0.67847142  0.28496112     0.10700
C2355       C  0.34470085  0.73282024  0.24714719     0.63600
H2356       H  0.32655477  0.70127076  0.22093286     0.08000
F2357       F  0.34649427  0.63431515  0.14985501    -0.19400
F2358       F  0.31548031  0.63648354  0.13269717    -0.15700
F2359       F  0.32524493  0.60942061  0.15856796    -0.19100
F2360       F  0.30111230  0.68833605  0.26239827    -0.22500
F2361       F  0.31640067  0.66370304  0.28717774    -0.24000
F2362       F  0.28429921  0.66090597  0.27522431    -0.18000
F2363       F  0.36012680  0.74304760  0.23401620    -0.20500
F2364       F  0.34100735  0.74087272  0.27435072    -0.21600
F2365       F  0.32784820  0.73566481  0.23033123    -0.18800
F2366       F  0.37723807  0.64374186  0.27952485    -0.18900
F2367       F  0.36817006  0.63949150  0.23303411    -0.22700
F2368       F  0.34549297  0.63699325  0.26886547    -0.24400
C2369       C  0.41135077  0.75120877  0.45754991    -0.11200
C2370       C  0.40409829  0.73381279  0.47060139     0.11400
C2371       C  0.39804959  0.71753969  0.45315928    -0.03000
C2372       C  0.39924298  0.71945631  0.42276435    -0.05700
C2373       C  0.40634217  0.73698827  0.40940655    -0.16500
C2374       C  0.41307211  0.75303587  0.42720275     0.02400
C2375       C  0.40251883  0.73351515  0.50271183     0.12400
C2376       C  0.39015952  0.69837397  0.46658646     0.63000
H2377       H  0.39423729  0.70724473  0.40913088     0.12400
C2378       C  0.42183065  0.77212859  0.41473794     0.55100
H2379       H  0.41559401  0.76349058  0.47160850     0.08200
C2380       C  0.41939751  0.73103727  0.52075321    -0.05600
C2381       C  0.41693189  0.73219870  0.55106272    -0.06300
C2382       C  0.39822303  0.73553078  0.56354321    -0.15900
C2383       C  0.38132339  0.73808546  0.54545626    -0.01500
C2384       C  0.38386152  0.73716102  0.51514217    -0.09100
C2385       C  0.43989145  0.72728762  0.50802039     0.65200
H2386       H  0.42964427  0.73054641  0.56534381     0.10700
C2387       C  0.36090149  0.74260079  0.55796303     0.63600
H2388       H  0.37131089  0.73949814  0.50074975     0.08000
F2389       F  0.43828333  0.76760606  0.39795815    -0.19400
F2390       F  0.42796592  0.78517160  0.43634110    -0.15700
F2391       F  0.40776628  0.78188940  0.39798782    -0.19100
F2392       F  0.37250917  0.70213733  0.48091942    -0.22500
F2393       F  0.40380434  0.69080196  0.48620392    -0.24000
F2394       F  0.38659506  0.68385919  0.44576761    -0.18000
F2395       F  0.36190826  0.75925569  0.57572981    -0.20500
F2396       F  0.35422182  0.72646137  0.57395575    -0.21600
F2397       F  0.34704136  0.74639350  0.53636154    -0.18800
F2398       F  0.45389309  0.72369465  0.52948000    -0.18900
F2399       F  0.44603295  0.74374488  0.49227972    -0.22700
F2400       F  0.43936497  0.71084133  0.48985932    -0.24400
C2401       C  0.32872062  0.80551195  0.34222200    -0.11200
C2402       C  0.32997045  0.81956903  0.31976290     0.11400
C2403       C  0.34618824  0.81913792  0.30024015    -0.03000
C2404       C  0.36016518  0.80368733  0.30291765    -0.05700
C2405       C  0.35843288  0.78893267  0.32448341    -0.16500
C2406       C  0.34273724  0.79008622  0.34508165     0.02400
C2407       C  0.31419073  0.83484360  0.31766054     0.12400
C2408       C  0.34858105  0.83479748  0.27656460     0.63000
H2409       H  0.37239206  0.80276831  0.28764948     0.12400
C2410       C  0.34099596  0.77563182  0.37046691     0.55100
H2411       H  0.31643586  0.80665880  0.35738019     0.08200
C2412       C  0.29552830  0.83064244  0.30483371    -0.05600
C2413       C  0.28131157  0.84594044  0.30363045    -0.06300
C2414       C  0.28516667  0.86500492  0.31496501    -0.15900
C2415       C  0.30376604  0.86909613  0.32816694    -0.01500
C2416       C  0.31796043  0.85374810  0.32945575    -0.09100
C2417       C  0.29048435  0.81000820  0.29319696     0.65200
H2418       H  0.26683210  0.84303677  0.29407037     0.10700
C2419       C  0.30842111  0.88928147  0.34158140     0.63600
H2420       H  0.33226887  0.85635491  0.33972323     0.08000
F2421       F  0.33623056  0.75676482  0.36045331    -0.19400
F2422       F  0.32632527  0.78137613  0.38985212    -0.15700
F2423       F  0.35880711  0.77492940  0.38551330    -0.19100
F2424       F  0.35076729  0.85346557  0.28898104    -0.22500
F2425       F  0.33203939  0.83485525  0.25869909    -0.24000
F2426       F  0.36512552  0.83122132  0.25945348    -0.18000
F2427       F  0.29380528  0.89441064  0.36137841    -0.20500
F2428       F  0.30938040  0.90361118  0.31996298    -0.21600
F2429       F  0.32644840  0.88919348  0.35613228    -0.18800
F2430       F  0.27218663  0.80971858  0.27937155    -0.18900
F2431       F  0.28983674  0.79650827  0.31593350    -0.22700
F2432       F  0.30467735  0.80392266  0.27335993    -0.24400
C2433       C  0.47300026  0.75260211  0.23509109    -0.11200
C2434       C  0.48718350  0.73825549  0.24277124     0.11400
C2435       C  0.48382213  0.72559982  0.26688644    -0.03000
C2436       C  0.46580759  0.72740092  0.28214256    -0.05700
C2437       C  0.45146692  0.74179897  0.27457781    -0.16500
C2438       C  0.45508108  0.75466458  0.25049372     0.02400
C2439       C  0.50604233  0.73799494  0.22622045     0.12400
C2440       C  0.49937709  0.71061685  0.27684888     0.63000
H2441       H  0.46297443  0.71777225  0.30057077     0.12400
C2442       C  0.44025428  0.77042149  0.24064604     0.55100
H2443       H  0.47628347  0.76236486  0.21696734     0.08200
C2444       C  0.50792530  0.72807765  0.19918180    -0.05600
C2445       C  0.52623814  0.72904594  0.18452968    -0.06300
C2446       C  0.54224597  0.74019845  0.19553822     0.06500
C2447       C  0.54009924  0.75056327  0.22233369    -0.01500
C2448       C  0.52192901  0.74917875  0.23722334    -0.09100
C2449       C  0.49059610  0.71683763  0.18570137     0.65200
H2450       H  0.52809183  0.72136756  0.16396622     0.10700
C2451       C  0.55684554  0.76281409  0.23553532     0.63600
H2452       H  0.51981447  0.75705109  0.25758828     0.08000
F2453       F  0.44619686  0.77979351  0.21523935    -0.19400
F2454       F  0.43838718  0.78492073  0.26190281    -0.15700
F2455       F  0.42196699  0.76169369  0.23537883    -0.19100
F2456       F  0.51632481  0.72058954  0.28566412    -0.22500
F2457       F  0.50417796  0.69782063  0.25434305    -0.24000
F2458       F  0.49273286  0.69919407  0.29999473    -0.18000
F2459       F  0.56049262  0.77935389  0.21832963    -0.20500
F2460       F  0.57389671  0.75135435  0.23761422    -0.21600
F2461       F  0.55220659  0.76951819  0.26321672    -0.18800
F2462       F  0.49577593  0.70795500  0.15957916    -0.18900
F2463       F  0.47508452  0.72986953  0.18035446    -0.22700
F2464       F  0.48414830  0.70202922  0.20437254    -0.24400
loop_ 
_geom_bond_atom_site_label_1 
_geom_bond_atom_site_label_2 
_geom_bond_distance 
_geom_bond_site_symmetry_2 
_ccdc_geom_bond_type 
In1           O3   2.230       .  S
In1           O4   2.241       .  S
In1          O12   2.246       .  S
In1           O6   2.234       .  S
In1           O8   2.243       .  S
In1           O9   2.238       .  S
In1          O10   2.225       .  S
In1          O13   2.238       .  S
C2            O8   1.263       .  A
C2           O10   1.258       .  A
C2         C2405   1.478       .  S
O3           C11   1.258       .  A
O4           C11   1.262       .  A
C5           O12   1.261       .  A
C5            O6   1.258       .  A
C5         C2437   1.486       .  S
C7            O9   1.260       .  A
C7           O13   1.259       .  A
C7         C2373   1.488       .  S
C11        C2350   1.482       .  S
In14         O16   2.233       .  S
In14         O17   2.253       .  S
In14         O25   2.248       .  S
In14         O19   2.236       .  S
In14         O21   2.246       .  S
In14         O22   2.232       .  S
In14         O23   2.245       .  S
In14         O26   2.242       .  S
C15          O21   1.260       .  A
C15          O23   1.257       .  A
C15        C2309   1.481       .  S
O16          C24   1.257       .  A
O17          C24   1.260       .  A
C18          O25   1.261       .  A
C18          O19   1.258       .  A
C18        C2446   1.480       .  S
C20          O22   1.261       .  A
C20          O26   1.260       .  A
C20        C2286   1.482       .  S
C24        C2245   1.479       .  S
In27         O29   2.241       .  S
In27         O30   2.254       .  S
In27         O38   2.251       .  S
In27         O32   2.242       .  S
In27         O34   2.265       .  S
In27         O35   2.252       .  S
In27         O36   2.253       .  S
In27         O39   2.237       .  S
C28          O34   1.262       .  A
C28          O36   1.260       .  A
C28        C2181   1.490       .  S
O29          C37   1.261       .  A
O30          C37   1.260       .  A
C31          O38   1.260       .  A
C31          O32   1.257       .  A
C31        C2213   1.491       .  S
C33          O35   1.261       .  A
C33          O39   1.260       .  A
C33        C2126   1.480       .  S
C37        C2149   1.482       .  S
In40         O42   2.243       .  S
In40         O43   2.238       .  S
In40         O51   2.237       .  S
In40         O45   2.254       .  S
In40         O47   2.248       .  S
In40         O48   2.246       .  S
In40         O49   2.236       .  S
In40         O52   2.242       .  S
C41          O47   1.262       .  A
C41          O49   1.261       .  A
C41        C2318   1.488       .  S
O42          C50   1.260       .  A
O43          C50   1.263       .  A
C44          O51   1.257       .  A
C44          O45   1.262       .  A
C44        C2222   1.491       .  S
C46          O48   1.261       .  A
C46          O52   1.262       .  A
C46        C2053   1.488       .  S
C50        C2094   1.482       .  S
In53         O55   2.246       .  S
In53         O56   2.257       .  S
In53         O64   2.246       .  S
In53         O58   2.261       .  S
In53         O60   2.257       .  S
In53         O61   2.232       .  S
In53         O62   2.252       .  S
In53         O65   2.266       .  S
C54          O60   1.262       .  A
C54          O62   1.261       .  A
C54        C2190   1.498       .  S
O55          C63   1.260       .  A
O56          C63   1.258       .  A
C57          O64   1.257       .  A
C57          O58   1.261       .  A
C57        C2021   1.495       .  S
C59          O61   1.259       .  A
C59          O65   1.261       .  A
C59        C1989   1.485       .  S
C63        C1957   1.488       .  S
In66         O68   2.239       .  S
In66         O69   2.238       .  S
In66         O77   2.246       .  S
In66         O71   2.241       .  S
In66         O73   2.253       .  S
In66         O74   2.241       .  S
In66         O75   2.236       .  S
In66         O78   2.240       .  S
C67          O73   1.261       .  A
C67          O75   1.260       .  A
C67        C1925   1.485       .  S
O68          C76   1.259       .  A
O69          C76   1.261       .  A
C70          O77   1.258       .  A
C70          O71   1.261       .  A
C70        C2030   1.484       .  S
C72          O74   1.260       .  A
C72          O78   1.260       .  A
C72        C1893   1.481       .  S
C76        C1861   1.487       .  S
In79         O81   2.246       .  S
In79         O82   2.241       .  S
In79         O90   2.243       .  S
In79         O84   2.237       .  S
In79         O86   2.228       .  S
In79         O87   2.260       .  S
In79         O88   2.244       .  S
In79         O91   2.219       .  S
C80          O86   1.258       .  A
C80          O88   1.260       .  A
C80        C2414   1.473       .  S
O81          C89   1.259       .  A
O82          C89   1.262       .  A
C83          O90   1.261       .  A
C83          O84   1.259       .  A
C83        C1829   1.476       .  S
C85          O87   1.264       .  A
C85          O91   1.257       .  A
C85        C1774   1.488       .  S
C89        C1797   1.483       .  S
In92         O94   2.251       .  S
In92         O95   2.248       .  S
In92        O103   2.245       .  S
In92         O97   2.247       .  S
In92         O99   2.243       .  S
In92        O100   2.251       .  S
In92        O101   2.248       .  S
In92        O104   2.248       .  S
C93          O99   1.259       .  A
C93         O101   1.259       .  A
C93        C1934   1.480       .  S
O94         C102   1.260       .  A
O95         C102   1.261       .  A
C96         O103   1.261       .  A
C96          O97   1.259       .  A
C96        C1838   1.491       .  S
C98         O100   1.260       .  A
C98         O104   1.259       .  A
C98        C1701   1.492       .  S
C102       C1742   1.488       .  S
In105       O107   2.246       .  S
In105       O108   2.234       .  S
In105       O116   2.244       .  S
In105       O110   2.234       .  S
In105       O112   2.240       .  S
In105       O113   2.241       .  S
In105       O114   2.231       .  S
In105       O117   2.219       .  S
C106        O112   1.260       .  A
C106        O114   1.259       .  A
C106       C1637   1.480       .  S
O107        C115   1.260       .  A
O108        C115   1.257       .  A
C109        O116   1.260       .  A
C109        O110   1.261       .  A
C109       C1669   1.486       .  S
C111        O113   1.263       .  A
C111        O117   1.258       .  A
C111       C1605   1.474       .  S
C115       C2382   1.473       .  S
In118       O120   2.231       .  S
In118       O121   2.252       .  S
In118       O129   2.247       .  S
In118       O123   2.232       .  S
In118       O125   2.246       .  S
In118       O126   2.229       .  S
In118       O127   2.228       .  S
In118       O130   2.262       .  S
C119        O125   1.259       .  A
C119        O127   1.261       .  A
C119       C1573   1.486       .  S
O120        C128   1.257       .  A
O121        C128   1.261       .  A
C122        O129   1.261       .  A
C122        O123   1.257       .  A
C122       C1678   1.483       .  S
C124        O126   1.256       .  A
C124        O130   1.262       .  A
C124       C1541   1.491       .  S
C128       C2277   1.481       .  S
In131       O133   2.237       .  S
In131       O134   2.274       .  S
In131       O142   2.255       .  S
In131       O136   2.245       .  S
In131       O138   2.262       .  S
In131       O139   2.249       .  S
In131       O140   2.240       .  S
In131       O143   2.253       .  S
C132        O138   1.260       .  A
C132        O140   1.260       .  A
C132       C1486   1.493       .  S
O133        C141   1.260       .  A
O134        C141   1.262       .  A
C135        O142   1.257       .  A
C135        O136   1.258       .  A
C135       C1509   1.488       .  S
C137        O139   1.261       .  A
C137        O143   1.261       .  A
C137       C2158   1.482       .  S
C141       C1445   1.499       .  S
In144       O146   2.252       .  S
In144       O147   2.240       .  S
In144       O155   2.228       .  S
In144       O149   2.240       .  S
In144       O151   2.249       .  S
In144       O152   2.245       .  S
In144       O153   2.228       .  S
In144       O156   2.248       .  S
C145        O151   1.262       .  A
C145        O153   1.259       .  A
C145       C1582   1.481       .  S
O146        C154   1.262       .  A
O147        C154   1.257       .  A
C148        O155   1.259       .  A
C148        O149   1.262       .  A
C148       C1518   1.485       .  S
C150        O152   1.261       .  A
C150        O156   1.258       .  A
C150       C2085   1.488       .  S
C154       C1413   1.490       .  S
In157       O159   2.243       .  S
In157       O160   2.250       .  S
In157       O168   2.243       .  S
In157       O162   2.248       .  S
In157       O164   2.241       .  S
In157       O165   2.254       .  S
In157       O166   2.242       .  S
In157       O169   2.228       .  S
C158        O164   1.261       .  A
C158        O166   1.260       .  A
C158       C1477   1.478       .  S
O159        C167   1.258       .  A
O160        C167   1.261       .  A
C161        O168   1.257       .  A
C161        O162   1.259       .  A
C161       C1381   1.489       .  S
C163        O165   1.260       .  A
C163        O169   1.261       .  A
C163       C1349   1.488       .  S
C167       C1998   1.480       .  S
In170       O172   2.246       .  S
In170       O173   2.238       .  S
In170       O181   2.253       .  S
In170       O175   2.231       .  S
In170       O177   2.243       .  S
In170       O178   2.259       .  S
In170       O179   2.247       .  S
In170       O182   2.237       .  S
C171        O177   1.260       .  A
C171        O179   1.259       .  A
C171       C1317   1.475       .  S
O172        C180   1.262       .  A
O173        C180   1.261       .  A
C174        O181   1.261       .  A
C174        O175   1.257       .  A
C174       C1390   1.476       .  S
C176        O178   1.262       .  A
C176        O182   1.256       .  A
C176       C1285   1.485       .  S
C180       C1902   1.485       .  S
In183       O185   2.238       .  S
In183       O186   2.256       .  S
In183       O194   2.255       .  S
In183       O188   2.228       .  S
In183       O190   2.249       .  S
In183       O191   2.240       .  S
In183       O192   2.229       .  S
In183       O195   2.244       .  S
C184        O190   1.262       .  A
C184        O192   1.260       .  A
C184       C1646   1.478       .  S
O185        C193   1.259       .  A
O186        C193   1.259       .  A
C187        O194   1.261       .  A
C187        O188   1.256       .  A
C187       C1253   1.489       .  S
C189        O191   1.259       .  A
C189        O195   1.261       .  A
C189       C1806   1.482       .  S
C193       C1230   1.491       .  S
In196       O198   2.248       .  S
In196       O199   2.253       .  S
In196       O207   2.250       .  S
In196       O201   2.246       .  S
In196       O203   2.244       .  S
In196       O204   2.246       .  S
In196       O205   2.246       .  S
In196       O208   2.249       .  S
C197        O203   1.260       .  A
C197        O205   1.262       .  A
C197       C1326   1.491       .  S
O198        C206   1.261       .  A
O199        C206   1.259       .  A
C200        O207   1.260       .  A
C200        O201   1.257       .  A
C200       C1262   1.485       .  S
C202        O204   1.259       .  A
C202        O208   1.261       .  A
C202       C1733   1.488       .  S
C206       C1189   1.492       .  S
In209       O211   2.251       .  S
In209       O212   2.259       .  S
In209       O220   2.247       .  S
In209       O214   2.245       .  S
In209       O216   2.237       .  S
In209       O217   2.254       .  S
In209       O218   2.246       .  S
In209       O221   2.243       .  S
C210        O216   1.261       .  A
C210        O218   1.264       .  A
C210       C1125   1.487       .  S
O211        C219   1.258       .  A
O212        C219   1.258       .  A
C213        O220   1.257       .  A
C213        O214   1.259       .  A
C213       C1157   1.488       .  S
C215        O217   1.259       .  A
C215        O221   1.259       .  A
C215       C1093   1.479       .  S
C219       C2254   1.483       .  S
In222       O224   2.250       .  S
In222       O225   2.253       .  S
In222       O233   2.241       .  S
In222       O227   2.248       .  S
In222       O229   2.254       .  S
In222       O230   2.233       .  S
In222       O231   2.245       .  S
In222       O234   2.250       .  S
C223        O229   1.260       .  A
C223        O231   1.260       .  A
C223       C1061   1.488       .  S
O224        C232   1.258       .  A
O225        C232   1.261       .  A
C226        O233   1.259       .  A
C226        O227   1.261       .  A
C226       C1166   1.485       .  S
C228        O230   1.259       .  A
C228        O234   1.262       .  A
C228       C1038   1.482       .  S
C232       C1966   1.492       .  S
In235       O237   2.261       .  S
In235       O238   2.243       .  S
In235       O246   2.251       .  S
In235       O240   2.261       .  S
In235       O242   2.258       .  S
In235       O243   2.241       .  S
In235       O244   2.240       .  S
In235       O247   2.249       .  S
C236        O242   1.264       .  A
C236        O244   1.257       .  A
C236       C1134   1.488       .  S
O237        C245   1.260       .  A
O238        C245   1.260       .  A
C239        O246   1.260       .  A
C239        O240   1.260       .  A
C239        C997   1.493       .  S
C241        O243   1.260       .  A
C241        O247   1.262       .  A
C241       C2062   1.491       .  S
C245        C965   1.486       .  S
In248       O250   2.237       .  S
In248       O251   2.239       .  S
In248       O259   2.243       .  S
In248       O253   2.246       .  S
In248       O255   2.247       .  S
In248       O256   2.242       .  S
In248       O257   2.240       .  S
In248       O260   2.234       .  S
C249        O255   1.260       .  A
C249        O257   1.259       .  A
C249        C933   1.478       .  S
O250        C258   1.261       .  A
O251        C258   1.260       .  A
C252        O259   1.258       .  A
C252        O253   1.260       .  A
C252       C1006   1.483       .  S
C254        O256   1.262       .  A
C254        O260   1.258       .  A
C254       C1765   1.488       .  S
C258        C910   1.482       .  S
In261       O263   2.247       .  S
In261       O264   2.238       .  S
In261       O272   2.242       .  S
In261       O266   2.235       .  S
In261       O268   2.265       .  S
In261       O269   2.258       .  S
In261       O270   2.229       .  S
In261       O273   2.237       .  S
C262        O268   1.260       .  A
C262        O270   1.258       .  A
C262        C837   1.479       .  S
O263        C271   1.256       .  A
O264        C271   1.259       .  A
C265        O272   1.262       .  A
C265        O266   1.258       .  A
C265        C869   1.488       .  S
C267        O269   1.261       .  A
C267        O273   1.261       .  A
C267       C1710   1.492       .  S
C271        C805   1.486       .  S
In274       O276   2.235       .  S
In274       O277   2.253       .  S
In274       O285   2.241       .  S
In274       O279   2.249       .  S
In274       O281   2.258       .  S
In274       O282   2.246       .  S
In274       O283   2.241       .  S
In274       O286   2.243       .  S
C275        O281   1.260       .  A
C275        O283   1.258       .  A
C275       C1070   1.480       .  S
O276        C284   1.258       .  A
O277        C284   1.260       .  A
C278        O285   1.258       .  A
C278        O279   1.261       .  A
C278        C878   1.492       .  S
C280        O282   1.260       .  A
C280        O286   1.262       .  A
C280       C2117   1.492       .  S
C284        C773   1.480       .  S
In287       O289   2.230       .  S
In287       O290   2.248       .  S
In287       O298   2.240       .  S
In287       O292   2.243       .  S
In287       O294   2.255       .  S
In287       O295   2.234       .  S
In287       O296   2.224       .  S
In287       O299   2.242       .  S
C288        O294   1.262       .  A
C288        O296   1.261       .  A
C288        C846   1.484       .  S
O289        C297   1.260       .  A
O290        C297   1.259       .  A
C291        O298   1.260       .  A
C291        O292   1.258       .  A
C291        C741   1.484       .  S
C293        O295   1.260       .  A
C293        O299   1.261       .  A
C293        C718   1.476       .  S
C297       C1870   1.486       .  S
In300       O302   2.244       .  S
In300       O303   2.247       .  S
In300       O311   2.243       .  S
In300       O305   2.243       .  S
In300       O307   2.242       .  S
In300       O308   2.232       .  S
In300       O309   2.234       .  S
In300       O312   2.245       .  S
C301        O307   1.262       .  A
C301        O309   1.258       .  A
C301        C942   1.484       .  S
O302        C310   1.262       .  A
O303        C310   1.258       .  A
C304        O311   1.261       .  A
C304        O305   1.257       .  A
C304        C750   1.489       .  S
C306        O308   1.261       .  A
C306        O312   1.259       .  A
C306        C677   1.484       .  S
C310       C2341   1.493       .  S
In313       O315   2.255       .  S
In313       O316   2.237       .  S
In313       O324   2.238       .  S
In313       O318   2.264       .  S
In313       O320   2.263       .  S
In313       O321   2.241       .  S
In313       O322   2.243       .  S
In313       O325   2.237       .  S
C314        O320   1.262       .  A
C314        O322   1.259       .  A
C314        C613   1.494       .  S
O315        C323   1.260       .  A
O316        C323   1.260       .  A
C317        O324   1.257       .  A
C317        O318   1.262       .  A
C317        C645   1.488       .  S
C319        O321   1.259       .  A
C319        O325   1.261       .  A
C319       C1550   1.478       .  S
C323       C1102   1.489       .  S
In326       O328   2.238       .  S
In326       O329   2.259       .  S
In326       O337   2.233       .  S
In326       O331   2.252       .  S
In326       O333   2.245       .  S
In326       O334   2.254       .  S
In326       O335   2.244       .  S
In326       O338   2.240       .  S
C327        O333   1.261       .  A
C327        O335   1.261       .  A
C327        C581   1.489       .  S
O328        C336   1.259       .  A
O329        C336   1.259       .  A
C330        O337   1.256       .  A
C330        O331   1.261       .  A
C330        C654   1.483       .  S
C332        O334   1.259       .  A
C332        O338   1.259       .  A
C332       C1358   1.478       .  S
C336       C1029   1.490       .  S
In339       O341   2.263       .  S
In339       O342   2.253       .  S
In339       O350   2.255       .  S
In339       O344   2.265       .  S
In339       O346   2.249       .  S
In339       O347   2.246       .  S
In339       O348   2.240       .  S
In339       O351   2.251       .  S
C340        O346   1.263       .  A
C340        O348   1.258       .  A
C340        C622   1.479       .  S
O341        C349   1.259       .  A
O342        C349   1.258       .  A
C343        O350   1.256       .  A
C343        O344   1.259       .  A
C343        C549   1.494       .  S
C345        O347   1.260       .  A
C345        O351   1.262       .  A
C345        C974   1.479       .  S
C349       C1422   1.491       .  S
In352       O354   2.233       .  S
In352       O355   2.264       .  S
In352       O363   2.250       .  S
In352       O357   2.237       .  S
In352       O359   2.247       .  S
In352       O360   2.236       .  S
In352       O361   2.251       .  S
In352       O364   2.242       .  S
C353        O359   1.260       .  A
C353        O361   1.260       .  A
C353        C526   1.487       .  S
O354        C362   1.255       .  A
O355        C362   1.262       .  A
C356        O363   1.260       .  A
C356        O357   1.261       .  A
C356        C558   1.482       .  S
C358        O360   1.260       .  A
C358        O364   1.261       .  A
C358        C901   1.479       .  S
C362       C1221   1.491       .  S
In365       O367   2.241       .  S
In365       O368   2.253       .  S
In365       O376   2.236       .  S
In365       O370   2.245       .  S
In365       O372   2.252       .  S
In365       O373   2.253       .  S
In365       O374   2.228       .  S
In365       O377   2.230       .  S
C366        O372   1.261       .  A
C366        O374   1.257       .  A
C366        C462   1.469       .  S
O367        C375   1.257       .  A
O368        C375   1.261       .  A
C369        O376   1.260       .  A
C369        O370   1.263       .  A
C369        C485   1.494       .  S
C371        O373   1.264       .  A
C371        O377   1.259       .  A
C371       C1294   1.490       .  S
C375        C709   1.484       .  S
In378       O380   2.250       .  S
In378       O381   2.233       .  S
In378       O389   2.254       .  S
In378       O383   2.238       .  S
In378       O385   2.267       .  S
In378       O386   2.241       .  S
In378       O387   2.231       .  S
In378       O390   2.228       .  S
C379        O385   1.262       .  A
C379        O387   1.255       .  A
C379        C517   1.489       .  S
O380        C388   1.262       .  A
O381        C388   1.257       .  A
C382        O389   1.262       .  A
C382        O383   1.259       .  A
C382        C494   1.493       .  S
C384        O386   1.262       .  A
C384        O390   1.260       .  A
C384       C1614   1.476       .  S
C388        C686   1.479       .  S
In391       O393   2.245       .  S
In391       O394   2.241       .  S
In391       O402   2.243       .  S
In391       O396   2.247       .  S
In391       O398   2.236       .  S
In391       O399   2.248       .  S
In391       O400   2.242       .  S
In391       O403   2.239       .  S
C392        O398   1.259       .  A
C392        O400   1.260       .  A
C392        C453   1.484       .  S
O393        C401   1.262       .  A
O394        C401   1.258       .  A
C395        O402   1.257       .  A
C395        O396   1.259       .  A
C395        C421   1.491       .  S
C397        O399   1.260       .  A
C397        O403   1.258       .  A
C397        C814   1.479       .  S
C401       C1198   1.489       .  S
In404       O406   2.245       .  S
In404       O407   2.266       .  S
In404       O415   2.245       .  S
In404       O409   2.260       .  S
In404       O411   2.263       .  S
In404       O412   2.246       .  S
In404       O413   2.239       .  S
In404       O416   2.255       .  S
C405        O411   1.261       .  A
C405        O413   1.259       .  A
C405        C590   1.483       .  S
O406        C414   1.257       .  A
O407        C414   1.261       .  A
C408        O415   1.260       .  A
C408        O409   1.263       .  A
C408        C430   1.497       .  S
C410        O412   1.260       .  A
C410        O416   1.261       .  A
C410        C782   1.484       .  S
C414       C1454   1.495       .  S
C417        C418   1.400       .  A
C417        C422   1.408       .  A
C417        H427   1.084   1_455  S
C418        C423   1.484   1_455  S
C418        C419   1.414       .  A
C419        C420   1.406       .  A
C419        C424   1.520       .  S
C420        C421   1.409       .  A
C420        H425   1.084       .  S
C421        C422   1.425       .  A
C422        C426   1.520       .  S
C423        C428   1.413       .  A
C423        C432   1.397       .  A
C424        F440   1.382       .  S
C424        F441   1.382       .  S
C424        F442   1.385       .  S
C426        F437   1.385       .  S
C426        F438   1.383       .  S
C426        F439   1.383       .  S
C428        C429   1.410       .  A
C428        C433   1.520       .  S
C429        C430   1.411       .  A
C429        H434   1.083       .  S
C430        C431   1.426       .  A
C431        C432   1.406       .  A
C431        C435   1.518       .  S
C432        H436   1.084       .  S
C433        F446   1.384       .  S
C433        F447   1.383       .  S
C433        F448   1.382       .  S
C435        F443   1.383       .  S
C435        F444   1.382       .  S
C435        F445   1.385       .  S
C449        C450   1.399       .  A
C449        C454   1.406       .  A
C449        H459   1.083       .  S
C450        C455   1.478       .  S
C450        C451   1.413       .  A
C451        C452   1.404       .  A
C451        C456   1.521       .  S
C452        C453   1.407       .  A
C452        H457   1.083       .  S
C453        C454   1.423       .  A
C454        C458   1.520       .  S
C455        C460   1.415       .  A
C455        C464   1.401       .  A
C456        F472   1.382       .  S
C456        F473   1.382       .  S
C456        F474   1.384       .  S
C458        F469   1.383       .  S
C458        F470   1.385       .  S
C458        F471   1.384       .  S
C460        C461   1.405       .  A
C460        C465   1.520       .  S
C461        C462   1.401       .  A
C461        H466   1.083       .  S
C462        C463   1.415       .  A
C463        C464   1.404       .  A
C463        C467   1.519       .  S
C464        H468   1.083       .  S
C465        F478   1.384       .  S
C465        F479   1.382       .  S
C465        F480   1.382       .  S
C467        F475   1.384       .  S
C467        F476   1.383       .  S
C467        F477   1.382       .  S
C481        C482   1.400       .  A
C481        C486   1.409       .  A
C481        H491   1.082       .  S
C482        C487   1.486       .  S
C482        C483   1.413       .  A
C483        C484   1.406       .  A
C483        C488   1.520       .  S
C484        C485   1.409       .  A
C484        H489   1.082       .  S
C485        C486   1.426       .  A
C486        C490   1.520       .  S
C487        C492   1.414       .  A
C487        C496   1.399       .  A
C488        F504   1.382       .  S
C488        F505   1.382       .  S
C488        F506   1.384       .  S
C490        F501   1.384       .  S
C490        F502   1.384       .  S
C490        F503   1.384       .  S
C492        C493   1.407       .  A
C492        C497   1.520       .  S
C493        C494   1.408       .  A
C493        H498   1.084       .  S
C494        C495   1.426       .  A
C495        C496   1.408       .  A
C495        C499   1.520       .  S
C496        H500   1.085       .  S
C497        F510   1.384       .  S
C497        F511   1.382       .  S
C497        F512   1.382       .  S
C499        F507   1.384       .  S
C499        F508   1.383       .  S
C499        F509   1.385       .  S
C513        C514   1.399       .  A
C513        C518   1.407       .  A
C513        H523   1.084       .  S
C514        C519   1.486       .  S
C514        C515   1.415       .  A
C515        C516   1.408       .  A
C515        C520   1.519       .  S
C516        C517   1.407       .  A
C516        H521   1.084       .  S
C517        C518   1.425       .  A
C518        C522   1.521       .  S
C519        C524   1.415       .  A
C519        C528   1.401       .  A
C520        F536   1.382       .  S
C520        F537   1.383       .  S
C520        F538   1.384       .  S
C522        F533   1.383       .  S
C522        F534   1.384       .  S
C522        F535   1.384       .  S
C524        C525   1.408       .  A
C524        C529   1.520       .  S
C525        C526   1.407       .  A
C525        H530   1.081       .  S
C526        C527   1.421       .  A
C527        C528   1.408       .  A
C527        C531   1.519       .  S
C528        H532   1.082       .  S
C529        F542   1.384       .  S
C529        F543   1.382       .  S
C529        F544   1.383       .  S
C531        F539   1.385       .  S
C531        F540   1.384       .  S
C531        F541   1.383       .  S
C545        C546   1.400       .  A
C545        C550   1.410       .  A
C545        H555   1.082       .  S
C546        C551   1.485   1_655  S
C546        C547   1.413       .  A
C547        C548   1.408       .  A
C547        C552   1.521       .  S
C548        C549   1.409       .  A
C548        H553   1.082       .  S
C549        C550   1.425       .  A
C550        C554   1.520       .  S
C551        C556   1.414       .  A
C551        C560   1.402       .  A
C552        F568   1.382       .  S
C552        F569   1.382       .  S
C552        F570   1.384       .  S
C554        F565   1.385       .  S
C554        F566   1.383       .  S
C554        F567   1.383       .  S
C556        C557   1.404       .  A
C556        C561   1.519       .  S
C557        C558   1.404       .  A
C557        H562   1.083       .  S
C558        C559   1.420       .  A
C559        C560   1.409       .  A
C559        C563   1.520       .  S
C560        H564   1.083   1_455  S
C561        F574   1.385       .  S
C561        F575   1.382       .  S
C561        F576   1.382       .  S
C563        F571   1.382       .  S
C563        F572   1.383       .  S
C563        F573   1.385       .  S
C577        C578   1.401       .  A
C577        C582   1.407       .  A
C577        H587   1.083       .  S
C578        C583   1.486       .  S
C578        C579   1.414       .  A
C579        C580   1.408       .  A
C579        C584   1.519       .  S
C580        C581   1.408       .  A
C580        H585   1.083       .  S
C581        C582   1.422       .  A
C582        C586   1.520       .  S
C583        C588   1.416       .  A
C583        C592   1.403       .  A
C584        F600   1.382       .  S
C584        F601   1.382       .  S
C584        F602   1.385       .  S
C586        F597   1.383       .  S
C586        F598   1.385       .  S
C586        F599   1.384       .  S
C588        C589   1.406       .  A
C588        C593   1.521       .  S
C589        C590   1.405       .  A
C589        H594   1.082       .  S
C590        C591   1.418       .  A
C591        C592   1.410       .  A
C591        C595   1.518       .  S
C592        H596   1.082       .  S
C593        F606   1.385       .  S
C593        F607   1.382       .  S
C593        F608   1.382       .  S
C595        F603   1.385       .  S
C595        F604   1.384       .  S
C595        F605   1.383       .  S
C609        C610   1.400       .  A
C609        C614   1.410       .  A
C609        H619   1.084       .  S
C610        C615   1.486       .  S
C610        C611   1.414       .  A
C611        C612   1.407       .  A
C611        C616   1.521       .  S
C612        C613   1.409       .  A
C612        H617   1.084       .  S
C613        C614   1.423       .  A
C614        C618   1.518       .  S
C615        C620   1.416       .  A
C615        C624   1.402       .  A
C616        F632   1.382       .  S
C616        F633   1.383       .  S
C616        F634   1.384       .  S
C618        F629   1.384       .  S
C618        F630   1.385       .  S
C618        F631   1.383       .  S
C620        C621   1.405       .  A
C620        C625   1.519       .  S
C621        C622   1.402       .  A
C621        H626   1.085       .  S
C622        C623   1.420       .  A
C623        C624   1.408       .  A
C623        C627   1.520       .  S
C624        H628   1.085       .  S
C625        F638   1.385       .  S
C625        F639   1.382       .  S
C625        F640   1.382       .  S
C627        F635   1.385       .  S
C627        F636   1.383       .  S
C627        F637   1.382       .  S
C641        C642   1.399       .  A
C641        C646   1.406       .  A
C641        H651   1.083       .  S
C642        C647   1.483       .  S
C642        C643   1.414       .  A
C643        C644   1.409       .  A
C643        C648   1.520       .  S
C644        C645   1.408       .  A
C644        H649   1.082       .  S
C645        C646   1.423       .  A
C646        C650   1.519       .  S
C647        C652   1.415       .  A
C647        C656   1.400       .  A
C648        F664   1.382       .  S
C648        F665   1.382       .  S
C648        F666   1.384       .  S
C650        F661   1.385       .  S
C650        F662   1.383       .  S
C650        F663   1.383       .  S
C652        C653   1.405       .  A
C652        C657   1.519       .  S
C653        C654   1.405       .  A
C653        H658   1.084       .  S
C654        C655   1.422       .  A
C655        C656   1.406       .  A
C655        C659   1.520       .  S
C656        H660   1.085       .  S
C657        F670   1.385       .  S
C657        F671   1.382       .  S
C657        F672   1.382       .  S
C659        F667   1.383       .  S
C659        F668   1.384       .  S
C659        F669   1.385       .  S
C673        C674   1.401       .  A
C673        C678   1.407       .  A
C673        H683   1.083       .  S
C674        C679   1.482   1_554  S
C674        C675   1.414       .  A
C675        C676   1.403       .  A
C675        C680   1.520       .  S
C676        C677   1.405       .  A
C676        H681   1.083       .  S
C677        C678   1.423       .  A
C678        C682   1.520       .  S
C679        C684   1.415       .  A
C679        C688   1.400       .  A
C680        F696   1.382   1_554  S
C680        F697   1.382   1_554  S
C680        F698   1.385       .  S
C682        F693   1.385       .  S
C682        F694   1.383       .  S
C682        F695   1.383       .  S
C684        C685   1.406       .  A
C684        C689   1.519       .  S
C685        C686   1.404       .  A
C685        H690   1.084       .  S
C686        C687   1.421       .  A
C687        C688   1.405       .  A
C687        C691   1.521       .  S
C688        H692   1.085       .  S
C689        F702   1.384       .  S
C689        F703   1.382       .  S
C689        F704   1.382       .  S
C691        F699   1.385       .  S
C691        F700   1.384       .  S
C691        F701   1.383       .  S
C705        C706   1.400       .  A
C705        C710   1.407       .  A
C705        H715   1.085       .  S
C706        C711   1.481       .  S
C706        C707   1.414       .  A
C707        C708   1.405       .  A
C707        C712   1.521       .  S
C708        C709   1.406       .  A
C708        H713   1.084       .  S
C709        C710   1.422       .  A
C710        C714   1.519       .  S
C711        C716   1.415       .  A
C711        C720   1.401       .  A
C712        F728   1.382       .  S
C712        F729   1.382       .  S
C712        F730   1.384       .  S
C714        F725   1.383       .  S
C714        F726   1.385       .  S
C714        F727   1.384       .  S
C716        C717   1.406       .  A
C716        C721   1.520       .  S
C717        C718   1.404       .  A
C717        H722   1.085       .  S
C718        C719   1.418       .  A
C719        C720   1.405       .  A
C719        C723   1.519       .  S
C720        H724   1.085       .  S
C721        F734   1.385       .  S
C721        F735   1.382       .  S
C721        F736   1.382       .  S
C723        F731   1.384       .  S
C723        F732   1.384       .  S
C723        F733   1.383       .  S
C737        C738   1.400       .  A
C737        C742   1.406       .  A
C737        H747   1.084       .  S
C738        C743   1.483       .  S
C738        C739   1.416       .  A
C739        C740   1.404       .  A
C739        C744   1.521       .  S
C740        C741   1.405       .  A
C740        H745   1.084       .  S
C741        C742   1.422       .  A
C742        C746   1.520       .  S
C743        C748   1.414       .  A
C743        C752   1.399       .  A
C744        F760   1.381       .  S
C744        F761   1.382       .  S
C744        F762   1.385       .  S
C746        F757   1.385       .  S
C746        F758   1.382       .  S
C746        F759   1.384       .  S
C748        C749   1.404       .  A
C748        C753   1.520       .  S
C749        C750   1.407       .  A
C749        H754   1.085       .  S
C750        C751   1.425       .  A
C751        C752   1.407       .  A
C751        C755   1.520       .  S
C752        H756   1.085       .  S
C753        F766   1.385       .  S
C753        F767   1.382       .  S
C753        F768   1.383       .  S
C755        F763   1.385       .  S
C755        F764   1.383       .  S
C755        F765   1.383       .  S
C769        C770   1.400   1_554  A
C769        C774   1.406       .  A
C769        H779   1.083       .  S
C770        C775   1.484       .  S
C770        C771   1.415   1_556  A
C771        C772   1.408       .  A
C771        C776   1.519   1_554  S
C772        C773   1.405       .  A
C772        H777   1.083       .  S
C773        C774   1.420       .  A
C774        C778   1.521       .  S
C775        C780   1.415       .  A
C775        C784   1.401       .  A
C776        F792   1.382       .  S
C776        F793   1.382       .  S
C776        F794   1.384   1_556  S
C778        F789   1.384       .  S
C778        F790   1.384       .  S
C778        F791   1.383       .  S
C780        C781   1.406       .  A
C780        C785   1.521       .  S
C781        C782   1.405       .  A
C781        H786   1.083       .  S
C782        C783   1.419       .  A
C783        C784   1.409       .  A
C783        C787   1.517       .  S
C784        H788   1.083       .  S
C785        F798   1.384       .  S
C785        F799   1.382       .  S
C785        F800   1.382       .  S
C787        F795   1.384       .  S
C787        F796   1.382       .  S
C787        F797   1.383       .  S
C801        C802   1.399       .  A
C801        C806   1.408       .  A
C801        H811   1.083       .  S
C802        C807   1.479       .  S
C802        C803   1.413       .  A
C803        C804   1.402       .  A
C803        C808   1.521       .  S
C804        C805   1.407       .  A
C804        H809   1.083       .  S
C805        C806   1.424       .  A
C806        C810   1.520       .  S
C807        C812   1.415       .  A
C807        C816   1.399       .  A
C808        F824   1.382       .  S
C808        F825   1.383       .  S
C808        F826   1.385       .  S
C810        F821   1.385       .  S
C810        F822   1.383       .  S
C810        F823   1.383       .  S
C812        C813   1.404       .  A
C812        C817   1.521       .  S
C813        C814   1.404       .  A
C813        H818   1.085       .  S
C814        C815   1.420       .  A
C815        C816   1.406       .  A
C815        C819   1.518       .  S
C816        H820   1.086       .  S
C817        F830   1.384       .  S
C817        F831   1.383       .  S
C817        F832   1.383       .  S
C819        F827   1.384       .  S
C819        F828   1.382       .  S
C819        F829   1.385       .  S
C833        C834   1.399       .  A
C833        C838   1.403       .  A
C833        H843   1.083       .  S
C834        C839   1.482       .  S
C834        C835   1.415       .  A
C835        C836   1.411       .  A
C835        C840   1.519       .  S
C836        C837   1.406       .  A
C836        H841   1.083       .  S
C837        C838   1.419       .  A
C838        C842   1.520       .  S
C839        C844   1.414       .  A
C839        C848   1.402       .  A
C840        F856   1.383       .  S
C840        F857   1.382       .  S
C840        F858   1.384       .  S
C842        F853   1.382       .  S
C842        F854   1.384       .  S
C842        F855   1.384       .  S
C844        C845   1.402       .  A
C844        C849   1.521       .  S
C845        C846   1.405       .  A
C845        H850   1.084       .  S
C846        C847   1.421       .  A
C847        C848   1.410       .  A
C847        C851   1.519       .  S
C848        H852   1.084       .  S
C849        F862   1.385       .  S
C849        F863   1.382       .  S
C849        F864   1.381       .  S
C851        F859   1.385       .  S
C851        F860   1.384       .  S
C851        F861   1.383       .  S
C865        C866   1.399       .  A
C865        C870   1.407       .  A
C865        H875   1.082       .  S
C866        C871   1.480   1_455  S
C866        C867   1.413       .  A
C867        C868   1.404       .  A
C867        C872   1.521   1_455  S
C868        C869   1.408       .  A
C868        H873   1.081       .  S
C869        C870   1.425       .  A
C870        C874   1.521       .  S
C871        C876   1.412       .  A
C871        C880   1.398       .  A
C872        F888   1.382       .  S
C872        F889   1.382       .  S
C872        F890   1.385   1_655  S
C874        F885   1.383       .  S
C874        F886   1.385       .  S
C874        F887   1.383       .  S
C876        C877   1.406       .  A
C876        C881   1.521       .  S
C877        C878   1.410       .  A
C877        H882   1.082       .  S
C878        C879   1.425       .  A
C879        C880   1.407       .  A
C879        C883   1.520       .  S
C880        H884   1.083   1_655  S
C881        F894   1.384       .  S
C881        F895   1.382       .  S
C881        F896   1.382       .  S
C883        F891   1.384       .  S
C883        F892   1.383       .  S
C883        F893   1.385       .  S
C897        C898   1.399       .  A
C897        C902   1.403       .  A
C897        H907   1.085       .  S
C898        C903   1.478   1_556  S
C898        C899   1.413       .  A
C899        C900   1.407       .  A
C899        C904   1.519       .  S
C900        C901   1.406       .  A
C900        H905   1.084       .  S
C901        C902   1.420       .  A
C902        C906   1.520       .  S
C903        C908   1.414       .  A
C903        C912   1.401       .  A
C904        F920   1.382       .  S
C904        F921   1.382       .  S
C904        F922   1.385       .  S
C906        F917   1.385       .  S
C906        F918   1.382       .  S
C906        F919   1.384       .  S
C908        C909   1.403       .  A
C908        C913   1.522   1_554  S
C909        C910   1.405       .  A
C909        H914   1.084       .  S
C910        C911   1.422       .  A
C911        C912   1.408       .  A
C911        C915   1.519       .  S
C912        H916   1.084       .  S
C913        F926   1.384   1_556  S
C913        F927   1.382       .  S
C913        F928   1.381       .  S
C915        F923   1.383       .  S
C915        F924   1.384       .  S
C915        F925   1.385       .  S
C929        C930   1.401       .  A
C929        C934   1.407       .  A
C929        H939   1.083       .  S
C930        C935   1.479       .  S
C930        C931   1.415       .  A
C931        C932   1.403       .  A
C931        C936   1.522       .  S
C932        C933   1.403       .  A
C932        H937   1.084       .  S
C933        C934   1.419       .  A
C934        C938   1.518       .  S
C935        C940   1.412       .  A
C935        C944   1.399       .  A
C936        F952   1.382       .  S
C936        F953   1.383       .  S
C936        F954   1.384       .  S
C938        F949   1.383       .  S
C938        F950   1.385       .  S
C938        F951   1.383       .  S
C940        C941   1.405       .  A
C940        C945   1.519       .  S
C941        C942   1.407       .  A
C941        H946   1.082       .  S
C942        C943   1.424       .  A
C943        C944   1.405       .  A
C943        C947   1.521       .  S
C944        H948   1.083       .  S
C945        F958   1.384       .  S
C945        F959   1.382       .  S
C945        F960   1.382       .  S
C947        F955   1.385       .  S
C947        F956   1.383       .  S
C947        F957   1.383       .  S
C961        C962   1.403       .  A
C961        C966   1.410       .  A
C961        H971   1.084       .  S
C962        C967   1.488       .  S
C962        C963   1.416       .  A
C963        C964   1.406       .  A
C963        C968   1.520       .  S
C964        C965   1.405       .  A
C964        H969   1.083       .  S
C965        C966   1.420       .  A
C966        C970   1.517       .  S
C967        C972   1.417       .  A
C967        C976   1.403       .  A
C968        F984   1.382       .  S
C968        F985   1.383       .  S
C968        F986   1.385       .  S
C970        F981   1.385       .  S
C970        F982   1.384       .  S
C970        F983   1.382       .  S
C972        C973   1.407       .  A
C972        C977   1.520       .  S
C973        C974   1.403       .  A
C973        H978   1.083       .  S
C974        C975   1.416       .  A
C975        C976   1.409       .  A
C975        C979   1.517       .  S
C976        H980   1.082       .  S
C977        F990   1.385       .  S
C977        F991   1.382       .  S
C977        F992   1.383       .  S
C979        F987   1.384       .  S
C979        F988   1.384       .  S
C979        F989   1.383       .  S
C993        C994   1.401       .  A
C993        C998   1.409       .  A
C993       H1003   1.082       .  S
C994        C999   1.486   1_655  S
C994        C995   1.413       .  A
C995        C996   1.408       .  A
C995       C1000   1.520       .  S
C996        C997   1.409       .  A
C996       H1001   1.082       .  S
C997        C998   1.424       .  A
C998       C1002   1.519       .  S
C999       C1004   1.415       .  A
C999       C1008   1.402       .  A
C1000      F1016   1.382       .  S
C1000      F1017   1.382   1_655  S
C1000      F1018   1.384       .  S
C1002      F1013   1.383       .  S
C1002      F1014   1.385       .  S
C1002      F1015   1.383       .  S
C1004      C1005   1.405       .  A
C1004      C1009   1.520       .  S
C1005      C1006   1.405       .  A
C1005      H1010   1.083       .  S
C1006      C1007   1.420       .  A
C1007      C1008   1.409       .  A
C1007      C1011   1.520       .  S
C1008      H1012   1.083   1_455  S
C1009      F1022   1.385       .  S
C1009      F1023   1.382       .  S
C1009      F1024   1.382       .  S
C1011      F1019   1.384       .  S
C1011      F1020   1.383       .  S
C1011      F1021   1.384       .  S
C1025      C1026   1.400       .  A
C1025      C1030   1.410       .  A
C1025      H1035   1.083       .  S
C1026      C1031   1.481   1_556  S
C1026      C1027   1.413       .  A
C1027      C1028   1.403       .  A
C1027      C1032   1.522       .  S
C1028      C1029   1.407       .  A
C1028      H1033   1.082       .  S
C1029      C1030   1.424       .  A
C1030      C1034   1.519       .  S
C1031      C1036   1.413       .  A
C1031      C1040   1.399       .  A
C1032      F1048   1.382   1_556  S
C1032      F1049   1.382   1_556  S
C1032      F1050   1.385       .  S
C1034      F1045   1.385       .  S
C1034      F1046   1.383       .  S
C1034      F1047   1.383       .  S
C1036      C1037   1.408       .  A
C1036      C1041   1.519       .  S
C1037      C1038   1.406       .  A
C1037      H1042   1.083       .  S
C1038      C1039   1.421       .  A
C1039      C1040   1.405       .  A
C1039      C1043   1.520       .  S
C1040      H1044   1.083       .  S
C1041      F1054   1.384       .  S
C1041      F1055   1.382       .  S
C1041      F1056   1.382       .  S
C1043      F1051   1.383       .  S
C1043      F1052   1.384       .  S
C1043      F1053   1.385       .  S
C1057      C1058   1.402       .  A
C1057      C1062   1.409       .  A
C1057      H1067   1.083       .  S
C1058      C1063   1.488       .  S
C1058      C1059   1.416       .  A
C1059      C1060   1.407       .  A
C1059      C1064   1.521       .  S
C1060      C1061   1.406       .  A
C1060      H1065   1.084       .  S
C1061      C1062   1.421       .  A
C1062      C1066   1.518       .  S
C1063      C1068   1.417       .  A
C1063      C1072   1.402       .  A
C1064      F1080   1.382       .  S
C1064      F1081   1.383       .  S
C1064      F1082   1.385       .  S
C1066      F1077   1.383       .  S
C1066      F1078   1.384       .  S
C1066      F1079   1.383       .  S
C1068      C1069   1.410       .  A
C1068      C1073   1.519       .  S
C1069      C1070   1.405       .  A
C1069      H1074   1.083       .  S
C1070      C1071   1.418       .  A
C1071      C1072   1.406       .  A
C1071      C1075   1.520       .  S
C1072      H1076   1.083       .  S
C1073      F1086   1.385       .  S
C1073      F1087   1.382       .  S
C1073      F1088   1.383       .  S
C1075      F1083   1.384       .  S
C1075      F1084   1.384       .  S
C1075      F1085   1.383       .  S
C1089      C1090   1.403       .  A
C1089      C1094   1.409       .  A
C1089      H1099   1.081       .  S
C1090      C1095   1.483       .  S
C1090      C1091   1.415       .  A
C1091      C1092   1.404       .  A
C1091      C1096   1.520       .  S
C1092      C1093   1.403       .  A
C1092      H1097   1.081       .  S
C1093      C1094   1.418       .  A
C1094      C1098   1.518       .  S
C1095      C1100   1.413       .  A
C1095      C1104   1.401       .  A
C1096      F1112   1.382       .  S
C1096      F1113   1.383       .  S
C1096      F1114   1.384       .  S
C1098      F1109   1.382       .  S
C1098      F1110   1.385       .  S
C1098      F1111   1.384       .  S
C1100      C1101   1.404       .  A
C1100      C1105   1.520       .  S
C1101      C1102   1.407       .  A
C1101      H1106   1.083       .  S
C1102      C1103   1.423       .  A
C1103      C1104   1.409       .  A
C1103      C1107   1.519       .  S
C1104      H1108   1.084       .  S
C1105      F1118   1.385       .  S
C1105      F1119   1.382       .  S
C1105      F1120   1.382       .  S
C1107      F1115   1.385       .  S
C1107      F1116   1.383       .  S
C1107      F1117   1.382       .  S
C1121      C1122   1.401       .  A
C1121      C1126   1.408       .  A
C1121      H1131   1.083       .  S
C1122      C1127   1.486       .  S
C1122      C1123   1.415       .  A
C1123      C1124   1.407       .  A
C1123      C1128   1.520       .  S
C1124      C1125   1.406       .  A
C1124      H1129   1.083       .  S
C1125      C1126   1.423       .  A
C1126      C1130   1.520       .  S
C1127      C1132   1.415       .  A
C1127      C1136   1.400       .  A
C1128      F1144   1.382       .  S
C1128      F1145   1.382       .  S
C1128      F1146   1.384       .  S
C1130      F1141   1.383       .  S
C1130      F1142   1.385       .  S
C1130      F1143   1.384       .  S
C1132      C1133   1.408       .  A
C1132      C1137   1.519       .  S
C1133      C1134   1.406       .  A
C1133      H1138   1.085       .  S
C1134      C1135   1.424       .  A
C1135      C1136   1.407       .  A
C1135      C1139   1.521       .  S
C1136      H1140   1.085       .  S
C1137      F1150   1.385       .  S
C1137      F1151   1.382       .  S
C1137      F1152   1.382       .  S
C1139      F1147   1.385       .  S
C1139      F1148   1.383       .  S
C1139      F1149   1.383       .  S
C1153      C1154   1.401       .  A
C1153      C1158   1.407       .  A
C1153      H1163   1.085       .  S
C1154      C1159   1.483       .  S
C1154      C1155   1.414       .  A
C1155      C1156   1.405       .  A
C1155      C1160   1.521       .  S
C1156      C1157   1.407       .  A
C1156      H1161   1.084       .  S
C1157      C1158   1.423       .  A
C1158      C1162   1.520       .  S
C1159      C1164   1.415       .  A
C1159      C1168   1.400       .  A
C1160      F1176   1.382       .  S
C1160      F1177   1.382       .  S
C1160      F1178   1.384       .  S
C1162      F1173   1.384       .  S
C1162      F1174   1.385       .  S
C1162      F1175   1.383       .  S
C1164      C1165   1.407       .  A
C1164      C1169   1.520       .  S
C1165      C1166   1.407       .  A
C1165      H1170   1.083       .  S
C1166      C1167   1.421       .  A
C1167      C1168   1.405       .  A
C1167      C1171   1.519       .  S
C1168      H1172   1.083       .  S
C1169      F1182   1.385       .  S
C1169      F1183   1.382       .  S
C1169      F1184   1.382       .  S
C1171      F1179   1.382       .  S
C1171      F1180   1.384       .  S
C1171      F1181   1.385       .  S
C1185      C1186   1.400       .  A
C1185      C1190   1.410       .  A
C1185      H1195   1.081       .  S
C1186      C1191   1.484       .  S
C1186      C1187   1.414       .  A
C1187      C1188   1.405       .  A
C1187      C1192   1.521       .  S
C1188      C1189   1.407       .  A
C1188      H1193   1.081       .  S
C1189      C1190   1.425       .  A
C1190      C1194   1.519       .  S
C1191      C1196   1.413       .  A
C1191      C1200   1.399       .  A
C1192      F1208   1.382       .  S
C1192      F1209   1.382       .  S
C1192      F1210   1.385       .  S
C1194      F1205   1.384       .  S
C1194      F1206   1.385       .  S
C1194      F1207   1.383       .  S
C1196      C1197   1.407       .  A
C1196      C1201   1.518       .  S
C1197      C1198   1.408       .  A
C1197      H1202   1.083       .  S
C1198      C1199   1.425       .  A
C1199      C1200   1.406       .  A
C1199      C1203   1.520       .  S
C1200      H1204   1.084       .  S
C1201      F1214   1.385       .  S
C1201      F1215   1.382       .  S
C1201      F1216   1.382       .  S
C1203      F1211   1.385       .  S
C1203      F1212   1.383       .  S
C1203      F1213   1.383       .  S
C1217      C1218   1.398       .  A
C1217      C1222   1.405       .  A
C1217      H1227   1.082       .  S
C1218      C1223   1.482       .  S
C1218      C1219   1.411       .  A
C1219      C1220   1.409       .  A
C1219      C1224   1.519       .  S
C1220      C1221   1.410       .  A
C1220      H1225   1.081       .  S
C1221      C1222   1.426       .  A
C1222      C1226   1.521       .  S
C1223      C1228   1.414       .  A
C1223      C1232   1.400       .  A
C1224      F1240   1.383       .  S
C1224      F1241   1.382       .  S
C1224      F1242   1.384       .  S
C1226      F1237   1.383       .  S
C1226      F1238   1.385       .  S
C1226      F1239   1.383       .  S
C1228      C1229   1.403       .  A
C1228      C1233   1.522       .  S
C1229      C1230   1.407       .  A
C1229      H1234   1.083       .  S
C1230      C1231   1.425       .  A
C1231      C1232   1.410       .  A
C1231      C1235   1.519       .  S
C1232      H1236   1.084       .  S
C1233      F1246   1.385       .  S
C1233      F1247   1.382       .  S
C1233      F1248   1.382       .  S
C1235      F1243   1.383       .  S
C1235      F1244   1.383       .  S
C1235      F1245   1.385       .  S
C1249      C1250   1.398   1_565  A
C1249      C1254   1.407       .  A
C1249      H1259   1.083       .  S
C1250      C1255   1.482       .  S
C1250      C1251   1.413   1_545  A
C1251      C1252   1.406       .  A
C1251      C1256   1.520   1_565  S
C1252      C1253   1.408       .  A
C1252      H1257   1.083       .  S
C1253      C1254   1.425       .  A
C1254      C1258   1.521       .  S
C1255      C1260   1.414       .  A
C1255      C1264   1.400       .  A
C1256      F1272   1.382       .  S
C1256      F1273   1.383       .  S
C1256      F1274   1.384       .  S
C1258      F1269   1.384       .  S
C1258      F1270   1.384       .  S
C1258      F1271   1.384       .  S
C1260      C1261   1.405       .  A
C1260      C1265   1.520       .  S
C1261      C1262   1.405       .  A
C1261      H1266   1.084       .  S
C1262      C1263   1.423       .  A
C1263      C1264   1.408       .  A
C1263      C1267   1.520       .  S
C1264      H1268   1.084       .  S
C1265      F1278   1.384       .  S
C1265      F1279   1.382   1_545  S
C1265      F1280   1.383   1_545  S
C1267      F1275   1.383       .  S
C1267      F1276   1.384       .  S
C1267      F1277   1.385       .  S
C1281      C1282   1.400       .  A
C1281      C1286   1.405       .  A
C1281      H1291   1.085       .  S
C1282      C1287   1.484       .  S
C1282      C1283   1.415       .  A
C1283      C1284   1.408       .  A
C1283      C1288   1.519       .  S
C1284      C1285   1.406       .  A
C1284      H1289   1.085       .  S
C1285      C1286   1.423       .  A
C1286      C1290   1.521       .  S
C1287      C1292   1.415       .  A
C1287      C1296   1.400       .  A
C1288      F1304   1.382       .  S
C1288      F1305   1.382       .  S
C1288      F1306   1.385       .  S
C1290      F1301   1.383       .  S
C1290      F1302   1.385       .  S
C1290      F1303   1.384       .  S
C1292      C1293   1.408       .  A
C1292      C1297   1.520       .  S
C1293      C1294   1.407       .  A
C1293      H1298   1.082       .  S
C1294      C1295   1.424       .  A
C1295      C1296   1.407       .  A
C1295      C1299   1.520       .  S
C1296      H1300   1.083       .  S
C1297      F1310   1.385       .  S
C1297      F1311   1.382       .  S
C1297      F1312   1.382       .  S
C1299      F1307   1.385       .  S
C1299      F1308   1.383       .  S
C1299      F1309   1.384       .  S
C1313      C1314   1.402       .  A
C1313      C1318   1.408       .  A
C1313      H1323   1.084       .  S
C1314      C1319   1.483       .  S
C1314      C1315   1.416       .  A
C1315      C1316   1.405       .  A
C1315      C1320   1.519       .  S
C1316      C1317   1.402       .  A
C1316      H1321   1.084       .  S
C1317      C1318   1.417       .  A
C1318      C1322   1.519       .  S
C1319      C1324   1.413       .  A
C1319      C1328   1.399       .  A
C1320      F1336   1.382       .  S
C1320      F1337   1.382       .  S
C1320      F1338   1.385       .  S
C1322      F1333   1.384       .  S
C1322      F1334   1.384       .  S
C1322      F1335   1.382       .  S
C1324      C1325   1.406       .  A
C1324      C1329   1.520       .  S
C1325      C1326   1.408       .  A
C1325      H1330   1.083       .  S
C1326      C1327   1.424       .  A
C1327      C1328   1.408       .  A
C1327      C1331   1.520       .  S
C1328      H1332   1.083       .  S
C1329      F1342   1.385       .  S
C1329      F1343   1.382       .  S
C1329      F1344   1.382       .  S
C1331      F1339   1.385       .  S
C1331      F1340   1.383       .  S
C1331      F1341   1.383       .  S
C1345      C1346   1.400       .  A
C1345      C1350   1.409       .  A
C1345      H1355   1.083       .  S
C1346      C1351   1.480       .  S
C1346      C1347   1.411       .  A
C1347      C1348   1.402       .  A
C1347      C1352   1.520       .  S
C1348      C1349   1.407       .  A
C1348      H1353   1.082       .  S
C1349      C1350   1.425       .  A
C1350      C1354   1.519       .  S
C1351      C1356   1.414       .  A
C1351      C1360   1.402       .  A
C1352      F1368   1.382       .  S
C1352      F1369   1.382       .  S
C1352      F1370   1.385       .  S
C1354      F1365   1.385       .  S
C1354      F1366   1.384       .  S
C1354      F1367   1.383       .  S
C1356      C1357   1.403       .  A
C1356      C1361   1.521       .  S
C1357      C1358   1.403       .  A
C1357      H1362   1.083       .  S
C1358      C1359   1.418       .  A
C1359      C1360   1.408       .  A
C1359      C1363   1.518       .  S
C1360      H1364   1.082       .  S
C1361      F1374   1.384       .  S
C1361      F1375   1.382       .  S
C1361      F1376   1.382       .  S
C1363      F1371   1.385       .  S
C1363      F1372   1.384       .  S
C1363      F1373   1.382       .  S
C1377      C1378   1.398       .  A
C1377      C1382   1.405       .  A
C1377      H1387   1.087       .  S
C1378      C1383   1.481       .  S
C1378      C1379   1.413       .  A
C1379      C1380   1.406       .  A
C1379      C1384   1.520       .  S
C1380      C1381   1.409       .  A
C1380      H1385   1.086       .  S
C1381      C1382   1.424       .  A
C1382      C1386   1.520       .  S
C1383      C1388   1.416       .  A
C1383      C1392   1.400       .  A
C1384      F1400   1.382       .  S
C1384      F1401   1.382       .  S
C1384      F1402   1.385       .  S
C1386      F1397   1.384       .  S
C1386      F1398   1.385       .  S
C1386      F1399   1.383       .  S
C1388      C1389   1.406       .  A
C1388      C1393   1.520       .  S
C1389      C1390   1.403       .  A
C1389      H1394   1.084       .  S
C1390      C1391   1.419       .  A
C1391      C1392   1.405       .  A
C1391      C1395   1.520       .  S
C1392      H1396   1.084       .  S
C1393      F1406   1.384       .  S
C1393      F1407   1.382       .  S
C1393      F1408   1.383       .  S
C1395      F1403   1.384       .  S
C1395      F1404   1.383       .  S
C1395      F1405   1.384       .  S
C1409      C1410   1.400       .  A
C1409      C1414   1.409       .  A
C1409      H1419   1.083       .  S
C1410      C1415   1.485       .  S
C1410      C1411   1.414       .  A
C1411      C1412   1.406       .  A
C1411      C1416   1.520       .  S
C1412      C1413   1.407       .  A
C1412      H1417   1.082       .  S
C1413      C1414   1.425       .  A
C1414      C1418   1.521       .  S
C1415      C1420   1.415       .  A
C1415      C1424   1.400       .  A
C1416      F1432   1.382       .  S
C1416      F1433   1.382       .  S
C1416      F1434   1.385       .  S
C1418      F1429   1.383       .  S
C1418      F1430   1.385       .  S
C1418      F1431   1.384       .  S
C1420      C1421   1.408       .  A
C1420      C1425   1.521       .  S
C1421      C1422   1.408       .  A
C1421      H1426   1.085       .  S
C1422      C1423   1.423       .  A
C1423      C1424   1.408       .  A
C1423      C1427   1.519       .  S
C1424      H1428   1.085       .  S
C1425      F1438   1.384       .  S
C1425      F1439   1.382       .  S
C1425      F1440   1.382       .  S
C1427      F1435   1.385       .  S
C1427      F1436   1.383       .  S
C1427      F1437   1.384       .  S
C1441      C1442   1.403       .  A
C1441      C1446   1.414       .  A
C1441      H1451   1.083       .  S
C1442      C1447   1.490       .  S
C1442      C1443   1.414       .  A
C1443      C1444   1.405       .  A
C1443      C1448   1.522       .  S
C1444      C1445   1.409       .  A
C1444      H1449   1.082       .  S
C1445      C1446   1.426       .  A
C1446      C1450   1.519       .  S
C1447      C1452   1.414       .  A
C1447      C1456   1.400       .  A
C1448      F1464   1.382       .  S
C1448      F1465   1.382       .  S
C1448      F1466   1.384       .  S
C1450      F1461   1.385       .  S
C1450      F1462   1.383       .  S
C1450      F1463   1.384       .  S
C1452      C1453   1.410       .  A
C1452      C1457   1.519       .  S
C1453      C1454   1.410       .  A
C1453      H1458   1.081       .  S
C1454      C1455   1.425       .  A
C1455      C1456   1.409       .  A
C1455      C1459   1.520       .  S
C1456      H1460   1.082       .  S
C1457      F1470   1.384       .  S
C1457      F1471   1.382       .  S
C1457      F1472   1.382       .  S
C1459      F1467   1.385       .  S
C1459      F1468   1.384       .  S
C1459      F1469   1.383       .  S
C1473      C1474   1.402       .  A
C1473      C1478   1.406       .  A
C1473      H1483   1.084       .  S
C1474      C1479   1.484       .  S
C1474      C1475   1.415       .  A
C1475      C1476   1.406       .  A
C1475      C1480   1.519       .  S
C1476      C1477   1.404       .  A
C1476      H1481   1.084       .  S
C1477      C1478   1.418       .  A
C1478      C1482   1.520       .  S
C1479      C1484   1.414       .  A
C1479      C1488   1.401       .  A
C1480      F1496   1.382       .  S
C1480      F1497   1.382       .  S
C1480      F1498   1.385       .  S
C1482      F1493   1.382       .  S
C1482      F1494   1.385       .  S
C1482      F1495   1.384       .  S
C1484      C1485   1.405       .  A
C1484      C1489   1.521       .  S
C1485      C1486   1.408       .  A
C1485      H1490   1.083       .  S
C1486      C1487   1.425       .  A
C1487      C1488   1.410       .  A
C1487      C1491   1.519       .  S
C1488      H1492   1.084       .  S
C1489      F1502   1.385       .  S
C1489      F1503   1.382       .  S
C1489      F1504   1.382       .  S
C1491      F1499   1.385       .  S
C1491      F1500   1.383       .  S
C1491      F1501   1.383       .  S
C1505      C1506   1.400       .  A
C1505      C1510   1.408       .  A
C1505      H1515   1.082       .  S
C1506      C1511   1.478   1_545  S
C1506      C1507   1.411       .  A
C1507      C1508   1.404       .  A
C1507      C1512   1.521       .  S
C1508      C1509   1.408       .  A
C1508      H1513   1.082       .  S
C1509      C1510   1.424       .  A
C1510      C1514   1.520       .  S
C1511      C1516   1.412       .  A
C1511      C1520   1.399       .  A
C1512      F1528   1.382       .  S
C1512      F1529   1.382       .  S
C1512      F1530   1.384       .  S
C1514      F1525   1.385       .  S
C1514      F1526   1.383       .  S
C1514      F1527   1.383       .  S
C1516      C1517   1.405       .  A
C1516      C1521   1.520   1_565  S
C1517      C1518   1.407       .  A
C1517      H1522   1.084       .  S
C1518      C1519   1.424       .  A
C1519      C1520   1.406       .  A
C1519      C1523   1.521       .  S
C1520      H1524   1.084       .  S
C1521      F1534   1.384   1_545  S
C1521      F1535   1.382       .  S
C1521      F1536   1.382       .  S
C1523      F1531   1.384       .  S
C1523      F1532   1.383       .  S
C1523      F1533   1.385       .  S
C1537      C1538   1.397       .  A
C1537      C1542   1.406       .  A
C1537      H1547   1.084       .  S
C1538      C1543   1.480       .  S
C1538      C1539   1.413       .  A
C1539      C1540   1.407       .  A
C1539      C1544   1.520       .  S
C1540      C1541   1.409       .  A
C1540      H1545   1.083       .  S
C1541      C1542   1.426       .  A
C1542      C1546   1.521       .  S
C1543      C1548   1.415       .  A
C1543      C1552   1.401       .  A
C1544      F1560   1.383       .  S
C1544      F1561   1.383       .  S
C1544      F1562   1.384       .  S
C1546      F1557   1.383       .  S
C1546      F1558   1.385       .  S
C1546      F1559   1.384       .  S
C1548      C1549   1.403       .  A
C1548      C1553   1.521       .  S
C1549      C1550   1.404       .  A
C1549      H1554   1.084       .  S
C1550      C1551   1.419       .  A
C1551      C1552   1.407       .  A
C1551      C1555   1.518       .  S
C1552      H1556   1.084       .  S
C1553      F1566   1.385       .  S
C1553      F1567   1.382       .  S
C1553      F1568   1.382       .  S
C1555      F1563   1.384       .  S
C1555      F1564   1.383       .  S
C1555      F1565   1.385       .  S
C1569      C1570   1.400       .  A
C1569      C1574   1.409       .  A
C1569      H1579   1.084       .  S
C1570      C1575   1.478       .  S
C1570      C1571   1.413       .  A
C1571      C1572   1.401       .  A
C1571      C1576   1.522       .  S
C1572      C1573   1.406       .  A
C1572      H1577   1.083       .  S
C1573      C1574   1.424       .  A
C1574      C1578   1.520       .  S
C1575      C1580   1.412       .  A
C1575      C1584   1.399       .  A
C1576      F1592   1.382       .  S
C1576      F1593   1.381       .  S
C1576      F1594   1.385       .  S
C1578      F1589   1.383       .  S
C1578      F1590   1.385       .  S
C1578      F1591   1.383       .  S
C1580      C1581   1.407       .  A
C1580      C1585   1.520       .  S
C1581      C1582   1.407       .  A
C1581      H1586   1.081       .  S
C1582      C1583   1.421       .  A
C1583      C1584   1.404       .  A
C1583      C1587   1.520       .  S
C1584      H1588   1.082       .  S
C1585      F1598   1.384       .  S
C1585      F1599   1.382       .  S
C1585      F1600   1.382       .  S
C1587      F1595   1.384       .  S
C1587      F1596   1.383       .  S
C1587      F1597   1.385       .  S
C1601      C1602   1.399       .  A
C1601      C1606   1.401       .  A
C1601      H1611   1.083       .  S
C1602      C1607   1.476       .  S
C1602      C1603   1.413       .  A
C1603      C1604   1.406       .  A
C1603      C1608   1.518       .  S
C1604      C1605   1.405       .  A
C1604      H1609   1.082       .  S
C1605      C1606   1.420       .  A
C1606      C1610   1.521       .  S
C1607      C1612   1.414       .  A
C1607      C1616   1.400       .  A
C1608      F1624   1.382       .  S
C1608      F1625   1.382       .  S
C1608      F1626   1.385       .  S
C1610      F1621   1.385       .  S
C1610      F1622   1.383       .  S
C1610      F1623   1.383       .  S
C1612      C1613   1.404       .  A
C1612      C1617   1.521       .  S
C1613      C1614   1.404       .  A
C1613      H1618   1.084       .  S
C1614      C1615   1.419       .  A
C1615      C1616   1.404       .  A
C1615      C1619   1.519       .  S
C1616      H1620   1.084       .  S
C1617      F1630   1.384       .  S
C1617      F1631   1.382       .  S
C1617      F1632   1.382       .  S
C1619      F1627   1.385       .  S
C1619      F1628   1.382       .  S
C1619      F1629   1.384       .  S
C1633      C1634   1.400       .  A
C1633      C1638   1.406       .  A
C1633      H1643   1.083       .  S
C1634      C1639   1.478       .  S
C1634      C1635   1.414       .  A
C1635      C1636   1.404       .  A
C1635      C1640   1.521       .  S
C1636      C1637   1.406       .  A
C1636      H1641   1.083       .  S
C1637      C1638   1.420       .  A
C1638      C1642   1.519       .  S
C1639      C1644   1.414       .  A
C1639      C1648   1.399       .  A
C1640      F1656   1.382       .  S
C1640      F1657   1.382       .  S
C1640      F1658   1.385       .  S
C1642      F1653   1.382       .  S
C1642      F1654   1.384       .  S
C1642      F1655   1.384       .  S
C1644      C1645   1.407       .  A
C1644      C1649   1.519       .  S
C1645      C1646   1.406       .  A
C1645      H1650   1.083       .  S
C1646      C1647   1.419       .  A
C1647      C1648   1.404       .  A
C1647      C1651   1.520       .  S
C1648      H1652   1.083       .  S
C1649      F1662   1.384       .  S
C1649      F1663   1.383       .  S
C1649      F1664   1.382       .  S
C1651      F1659   1.385       .  S
C1651      F1660   1.384       .  S
C1651      F1661   1.382       .  S
C1665      C1666   1.400       .  A
C1665      C1670   1.406       .  A
C1665      H1675   1.085       .  S
C1666      C1671   1.480       .  S
C1666      C1667   1.412       .  A
C1667      C1668   1.404       .  A
C1667      C1672   1.520       .  S
C1668      C1669   1.408       .  A
C1668      H1673   1.084       .  S
C1669      C1670   1.422       .  A
C1670      C1674   1.519       .  S
C1671      C1676   1.414       .  A
C1671      C1680   1.399       .  A
C1672      F1688   1.382       .  S
C1672      F1689   1.382       .  S
C1672      F1690   1.385       .  S
C1674      F1685   1.383       .  S
C1674      F1686   1.385       .  S
C1674      F1687   1.383       .  S
C1676      C1677   1.404       .  A
C1676      C1681   1.520       .  S
C1677      C1678   1.405       .  A
C1677      H1682   1.084       .  S
C1678      C1679   1.423       .  A
C1679      C1680   1.405       .  A
C1679      C1683   1.520       .  S
C1680      H1684   1.085       .  S
C1681      F1694   1.385       .  S
C1681      F1695   1.382       .  S
C1681      F1696   1.382       .  S
C1683      F1691   1.383       .  S
C1683      F1692   1.384       .  S
C1683      F1693   1.385       .  S
C1697      C1698   1.400       .  A
C1697      C1702   1.409       .  A
C1697      H1707   1.083       .  S
C1698      C1703   1.486       .  S
C1698      C1699   1.413       .  A
C1699      C1700   1.407       .  A
C1699      C1704   1.519       .  S
C1700      C1701   1.408       .  A
C1700      H1705   1.083       .  S
C1701      C1702   1.424       .  A
C1702      C1706   1.520       .  S
C1703      C1708   1.414       .  A
C1703      C1712   1.401       .  A
C1704      F1720   1.382       .  S
C1704      F1721   1.382       .  S
C1704      F1722   1.384       .  S
C1706      F1717   1.385       .  S
C1706      F1718   1.383       .  S
C1706      F1719   1.384       .  S
C1708      C1709   1.404       .  A
C1708      C1713   1.521       .  S
C1709      C1710   1.406       .  A
C1709      H1714   1.085       .  S
C1710      C1711   1.425       .  A
C1711      C1712   1.412       .  A
C1711      C1715   1.519       .  S
C1712      H1716   1.086       .  S
C1713      F1726   1.385       .  S
C1713      F1727   1.382       .  S
C1713      F1728   1.382       .  S
C1715      F1723   1.383       .  S
C1715      F1724   1.383       .  S
C1715      F1725   1.385       .  S
C1729      C1730   1.401       .  A
C1729      C1734   1.408       .  A
C1729      H1739   1.085       .  S
C1730      C1735   1.485       .  S
C1730      C1731   1.415       .  A
C1731      C1732   1.406       .  A
C1731      C1736   1.520       .  S
C1732      C1733   1.407       .  A
C1732      H1737   1.084       .  S
C1733      C1734   1.422       .  A
C1734      C1738   1.519       .  S
C1735      C1740   1.415   1_556  A
C1735      C1744   1.401   1_556  A
C1736      F1752   1.382       .  S
C1736      F1753   1.382       .  S
C1736      F1754   1.385       .  S
C1738      F1749   1.382       .  S
C1738      F1750   1.385       .  S
C1738      F1751   1.384       .  S
C1740      C1741   1.407       .  A
C1740      C1745   1.521   1_554  S
C1741      C1742   1.407       .  A
C1741      H1746   1.083       .  S
C1742      C1743   1.422       .  A
C1743      C1744   1.409       .  A
C1743      C1747   1.518       .  S
C1744      H1748   1.083       .  S
C1745      F1758   1.384   1_556  S
C1745      F1759   1.382       .  S
C1745      F1760   1.383       .  S
C1747      F1755   1.385       .  S
C1747      F1756   1.383       .  S
C1747      F1757   1.383       .  S
C1761      C1762   1.399       .  A
C1761      C1766   1.406       .  A
C1761      H1771   1.081       .  S
C1762      C1767   1.481       .  S
C1762      C1763   1.414       .  A
C1763      C1764   1.405       .  A
C1763      C1768   1.521       .  S
C1764      C1765   1.408       .  A
C1764      H1769   1.080       .  S
C1765      C1766   1.424       .  A
C1766      C1770   1.521       .  S
C1767      C1772   1.413       .  A
C1767      C1776   1.397       .  A
C1768      F1784   1.382       .  S
C1768      F1785   1.382       .  S
C1768      F1786   1.385       .  S
C1770      F1781   1.383       .  S
C1770      F1782   1.385       .  S
C1770      F1783   1.384       .  S
C1772      C1773   1.408       .  A
C1772      C1777   1.519       .  S
C1773      C1774   1.409       .  A
C1773      H1778   1.082       .  S
C1774      C1775   1.426       .  A
C1775      C1776   1.403       .  A
C1775      C1779   1.522       .  S
C1776      H1780   1.082       .  S
C1777      F1790   1.384       .  S
C1777      F1791   1.382       .  S
C1777      F1792   1.382       .  S
C1779      F1787   1.385       .  S
C1779      F1788   1.383       .  S
C1779      F1789   1.383       .  S
C1793      C1794   1.401       .  A
C1793      C1798   1.407       .  A
C1793      H1803   1.082       .  S
C1794      C1799   1.482       .  S
C1794      C1795   1.415       .  A
C1795      C1796   1.405       .  A
C1795      C1800   1.521       .  S
C1796      C1797   1.405       .  A
C1796      H1801   1.081       .  S
C1797      C1798   1.420       .  A
C1798      C1802   1.517       .  S
C1799      C1804   1.414       .  A
C1799      C1808   1.399       .  A
C1800      F1816   1.381       .  S
C1800      F1817   1.383       .  S
C1800      F1818   1.384       .  S
C1802      F1813   1.385       .  S
C1802      F1814   1.382       .  S
C1802      F1815   1.383       .  S
C1804      C1805   1.406       .  A
C1804      C1809   1.520       .  S
C1805      C1806   1.406       .  A
C1805      H1810   1.079       .  S
C1806      C1807   1.420       .  A
C1807      C1808   1.405       .  A
C1807      C1811   1.519       .  S
C1808      H1812   1.098       .  S
C1809      F1822   1.384       .  S
C1809      F1823   1.382       .  S
C1809      F1824   1.383       .  S
C1811      F1819   1.385       .  S
C1811      F1820   1.383       .  S
C1811      F1821   1.383       .  S
C1825      C1826   1.401       .  A
C1825      C1830   1.405       .  A
C1825      H1835   1.085   1_565  S
C1826      C1831   1.481   1_565  S
C1826      C1827   1.415       .  A
C1827      C1828   1.405       .  A
C1827      C1832   1.519       .  S
C1828      C1829   1.403       .  A
C1828      H1833   1.086       .  S
C1829      C1830   1.417       .  A
C1830      C1834   1.517       .  S
C1831      C1836   1.412       .  A
C1831      C1840   1.399       .  A
C1832      F1848   1.382       .  S
C1832      F1849   1.382       .  S
C1832      F1850   1.384       .  S
C1834      F1845   1.382       .  S
C1834      F1846   1.384       .  S
C1834      F1847   1.384       .  S
C1836      C1837   1.405       .  A
C1836      C1841   1.521       .  S
C1837      C1838   1.409       .  A
C1837      H1842   1.081       .  S
C1838      C1839   1.425       .  A
C1839      C1840   1.408       .  A
C1839      C1843   1.520       .  S
C1840      H1844   1.082       .  S
C1841      F1854   1.384       .  S
C1841      F1855   1.382       .  S
C1841      F1856   1.382   1_545  S
C1843      F1851   1.383       .  S
C1843      F1852   1.383       .  S
C1843      F1853   1.385       .  S
C1857      C1858   1.399       .  A
C1857      C1862   1.405       .  A
C1857      H1867   1.084       .  S
C1858      C1863   1.481       .  S
C1858      C1859   1.412       .  A
C1859      C1860   1.405       .  A
C1859      C1864   1.519       .  S
C1860      C1861   1.408       .  A
C1860      H1865   1.083       .  S
C1861      C1862   1.424       .  A
C1862      C1866   1.520       .  S
C1863      C1868   1.414       .  A
C1863      C1872   1.400       .  A
C1864      F1880   1.382       .  S
C1864      F1881   1.382       .  S
C1864      F1882   1.385       .  S
C1866      F1877   1.385       .  S
C1866      F1878   1.383       .  S
C1866      F1879   1.384       .  S
C1868      C1869   1.402       .  A
C1868      C1873   1.522       .  S
C1869      C1870   1.406       .  A
C1869      H1874   1.084       .  S
C1870      C1871   1.423       .  A
C1871      C1872   1.408       .  A
C1871      C1875   1.519       .  S
C1872      H1876   1.084       .  S
C1873      F1886   1.385       .  S
C1873      F1887   1.381       .  S
C1873      F1888   1.382       .  S
C1875      F1883   1.385       .  S
C1875      F1884   1.383       .  S
C1875      F1885   1.384       .  S
C1889      C1890   1.401       .  A
C1889      C1894   1.406       .  A
C1889      H1899   1.082       .  S
C1890      C1895   1.485   1_554  S
C1890      C1891   1.415       .  A
C1891      C1892   1.406       .  A
C1891      C1896   1.520       .  S
C1892      C1893   1.405       .  A
C1892      H1897   1.082       .  S
C1893      C1894   1.420       .  A
C1894      C1898   1.520       .  S
C1895      C1900   1.415       .  A
C1895      C1904   1.400       .  A
C1896      F1912   1.382       .  S
C1896      F1913   1.383   1_554  S
C1896      F1914   1.384       .  S
C1898      F1909   1.383       .  S
C1898      F1910   1.384       .  S
C1898      F1911   1.384       .  S
C1900      C1901   1.407       .  A
C1900      C1905   1.520       .  S
C1901      C1902   1.406       .  A
C1901      H1906   1.083       .  S
C1902      C1903   1.422       .  A
C1903      C1904   1.406       .  A
C1903      C1907   1.520       .  S
C1904      H1908   1.083       .  S
C1905      F1918   1.384       .  S
C1905      F1919   1.382       .  S
C1905      F1920   1.383       .  S
C1907      F1915   1.384       .  S
C1907      F1916   1.383       .  S
C1907      F1917   1.383       .  S
C1921      C1922   1.400       .  A
C1921      C1926   1.408       .  A
C1921      H1931   1.082       .  S
C1922      C1927   1.482       .  S
C1922      C1923   1.414       .  A
C1923      C1924   1.405       .  A
C1923      C1928   1.520       .  S
C1924      C1925   1.406       .  A
C1924      H1929   1.082       .  S
C1925      C1926   1.421       .  A
C1926      C1930   1.518       .  S
C1927      C1932   1.414       .  A
C1927      C1936   1.401       .  A
C1928      F1944   1.382       .  S
C1928      F1945   1.382       .  S
C1928      F1946   1.385       .  S
C1930      F1941   1.383       .  S
C1930      F1942   1.385       .  S
C1930      F1943   1.383       .  S
C1932      C1933   1.405       .  A
C1932      C1937   1.519       .  S
C1933      C1934   1.405       .  A
C1933      H1938   1.082       .  S
C1934      C1935   1.419       .  A
C1935      C1936   1.408       .  A
C1935      C1939   1.519       .  S
C1936      H1940   1.082       .  S
C1937      F1950   1.384       .  S
C1937      F1951   1.383       .  S
C1937      F1952   1.382       .  S
C1939      F1947   1.385       .  S
C1939      F1948   1.383       .  S
C1939      F1949   1.383       .  S
C1953      C1954   1.402       .  A
C1953      C1958   1.411       .  A
C1953      H1963   1.083       .  S
C1954      C1959   1.487       .  S
C1954      C1955   1.415       .  A
C1955      C1956   1.404       .  A
C1955      C1960   1.520       .  S
C1956      C1957   1.405       .  A
C1956      H1961   1.083       .  S
C1957      C1958   1.423       .  A
C1958      C1962   1.519       .  S
C1959      C1964   1.413       .  A
C1959      C1968   1.401       .  A
C1960      F1976   1.382       .  S
C1960      F1977   1.382       .  S
C1960      F1978   1.385       .  S
C1962      F1973   1.385       .  S
C1962      F1974   1.383       .  S
C1962      F1975   1.384       .  S
C1964      C1965   1.407       .  A
C1964      C1969   1.519       .  S
C1965      C1966   1.408       .  A
C1965      H1970   1.082       .  S
C1966      C1967   1.424       .  A
C1967      C1968   1.409       .  A
C1967      C1971   1.519       .  S
C1968      H1972   1.083       .  S
C1969      F1982   1.385       .  S
C1969      F1983   1.382       .  S
C1969      F1984   1.382       .  S
C1971      F1979   1.384       .  S
C1971      F1980   1.382       .  S
C1971      F1981   1.385       .  S
C1985      C1986   1.403       .  A
C1985      C1990   1.410       .  A
C1985      H1995   1.083       .  S
C1986      C1991   1.483       .  S
C1986      C1987   1.414       .  A
C1987      C1988   1.403       .  A
C1987      C1992   1.521       .  S
C1988      C1989   1.405       .  A
C1988      H1993   1.082       .  S
C1989      C1990   1.420       .  A
C1990      C1994   1.518       .  S
C1991      C1996   1.415       .  A
C1991      C2000   1.401       .  A
C1992      F2008   1.382       .  S
C1992      F2009   1.381       .  S
C1992      F2010   1.384       .  S
C1994      F2005   1.385       .  S
C1994      F2006   1.382       .  S
C1994      F2007   1.383       .  S
C1996      C1997   1.407       .  A
C1996      C2001   1.520       .  S
C1997      C1998   1.405       .  A
C1997      H2002   1.083       .  S
C1998      C1999   1.420       .  A
C1999      C2000   1.406       .  A
C1999      C2003   1.521       .  S
C2000      H2004   1.083       .  S
C2001      F2014   1.384       .  S
C2001      F2015   1.382       .  S
C2001      F2016   1.382       .  S
C2003      F2011   1.382       .  S
C2003      F2012   1.384       .  S
C2003      F2013   1.385       .  S
C2017      C2018   1.398       .  A
C2017      C2022   1.408       .  A
C2017      H2027   1.083       .  S
C2018      C2023   1.485       .  S
C2018      C2019   1.413       .  A
C2019      C2020   1.408       .  A
C2019      C2024   1.520       .  S
C2020      C2021   1.409       .  A
C2020      H2025   1.082       .  S
C2021      C2022   1.426       .  A
C2022      C2026   1.520       .  S
C2023      C2028   1.414       .  A
C2023      C2032   1.402       .  A
C2024      F2040   1.383       .  S
C2024      F2041   1.383       .  S
C2024      F2042   1.384       .  S
C2026      F2037   1.385       .  S
C2026      F2038   1.383       .  S
C2026      F2039   1.383       .  S
C2028      C2029   1.403       .  A
C2028      C2033   1.520       .  S
C2029      C2030   1.404       .  A
C2029      H2034   1.083       .  S
C2030      C2031   1.422       .  A
C2031      C2032   1.410       .  A
C2031      C2035   1.519       .  S
C2032      H2036   1.083       .  S
C2033      F2046   1.384       .  S
C2033      F2047   1.382       .  S
C2033      F2048   1.382       .  S
C2035      F2043   1.383       .  S
C2035      F2044   1.384       .  S
C2035      F2045   1.385       .  S
C2049      C2050   1.401       .  A
C2049      C2054   1.409       .  A
C2049      H2059   1.084       .  S
C2050      C2055   1.488       .  S
C2050      C2051   1.416       .  A
C2051      C2052   1.405       .  A
C2051      C2056   1.521       .  S
C2052      C2053   1.406       .  A
C2052      H2057   1.084       .  S
C2053      C2054   1.422       .  A
C2054      C2058   1.519       .  S
C2055      C2060   1.416       .  A
C2055      C2064   1.400       .  A
C2056      F2072   1.382       .  S
C2056      F2073   1.383       .  S
C2056      F2074   1.385       .  S
C2058      F2069   1.383       .  S
C2058      F2070   1.385       .  S
C2058      F2071   1.384       .  S
C2060      C2061   1.407       .  A
C2060      C2065   1.521       .  S
C2061      C2062   1.407       .  A
C2061      H2066   1.083       .  S
C2062      C2063   1.424       .  A
C2063      C2064   1.408       .  A
C2063      C2067   1.520       .  S
C2064      H2068   1.083       .  S
C2065      F2078   1.385       .  S
C2065      F2079   1.382       .  S
C2065      F2080   1.383       .  S
C2067      F2075   1.383       .  S
C2067      F2076   1.384       .  S
C2067      F2077   1.385       .  S
C2081      C2082   1.401       .  A
C2081      C2086   1.410       .  A
C2081      H2091   1.083       .  S
C2082      C2087   1.482   1_556  S
C2082      C2083   1.414       .  A
C2083      C2084   1.404       .  A
C2083      C2088   1.522       .  S
C2084      C2085   1.406       .  A
C2084      H2089   1.082       .  S
C2085      C2086   1.423       .  A
C2086      C2090   1.519       .  S
C2087      C2092   1.413       .  A
C2087      C2096   1.400       .  A
C2088      F2104   1.382       .  S
C2088      F2105   1.382       .  S
C2088      F2106   1.384       .  S
C2090      F2101   1.385       .  S
C2090      F2102   1.383       .  S
C2090      F2103   1.384       .  S
C2092      C2093   1.405       .  A
C2092      C2097   1.518       .  S
C2093      C2094   1.405       .  A
C2093      H2098   1.084       .  S
C2094      C2095   1.422       .  A
C2095      C2096   1.406       .  A
C2095      C2099   1.520       .  S
C2096      H2100   1.084       .  S
C2097      F2110   1.385       .  S
C2097      F2111   1.382   1_554  S
C2097      F2112   1.381   1_554  S
C2099      F2107   1.382       .  S
C2099      F2108   1.384       .  S
C2099      F2109   1.385       .  S
C2113      C2114   1.400       .  A
C2113      C2118   1.409       .  A
C2113      H2123   1.084       .  S
C2114      C2119   1.486       .  S
C2114      C2115   1.414       .  A
C2115      C2116   1.406       .  A
C2115      C2120   1.520       .  S
C2116      C2117   1.407       .  A
C2116      H2121   1.083       .  S
C2117      C2118   1.425       .  A
C2118      C2122   1.520       .  S
C2119      C2124   1.416       .  A
C2119      C2128   1.403       .  A
C2120      F2136   1.382       .  S
C2120      F2137   1.383       .  S
C2120      F2138   1.385       .  S
C2122      F2133   1.385       .  S
C2122      F2134   1.383       .  S
C2122      F2135   1.384       .  S
C2124      C2125   1.404       .  A
C2124      C2129   1.520       .  S
C2125      C2126   1.402       .  A
C2125      H2130   1.082       .  S
C2126      C2127   1.419       .  A
C2127      C2128   1.410       .  A
C2127      C2131   1.518       .  S
C2128      H2132   1.083       .  S
C2129      F2142   1.385       .  S
C2129      F2143   1.382       .  S
C2129      F2144   1.382       .  S
C2131      F2139   1.385       .  S
C2131      F2140   1.384       .  S
C2131      F2141   1.382       .  S
C2145      C2146   1.404       .  A
C2145      C2150   1.411       .  A
C2145      H2155   1.084       .  S
C2146      C2151   1.487       .  S
C2146      C2147   1.416       .  A
C2147      C2148   1.404       .  A
C2147      C2152   1.519       .  S
C2148      C2149   1.402       .  A
C2148      H2153   1.083       .  S
C2149      C2150   1.419       .  A
C2150      C2154   1.518       .  S
C2151      C2156   1.415       .  A
C2151      C2160   1.402       .  A
C2152      F2168   1.382       .  S
C2152      F2169   1.382       .  S
C2152      F2170   1.385       .  S
C2154      F2165   1.385       .  S
C2154      F2166   1.382       .  S
C2154      F2167   1.384       .  S
C2156      C2157   1.410       .  A
C2156      C2161   1.518       .  S
C2157      C2158   1.405       .  A
C2157      H2162   1.083       .  S
C2158      C2159   1.418       .  A
C2159      C2160   1.408       .  A
C2159      C2163   1.518       .  S
C2160      H2164   1.083       .  S
C2161      F2174   1.384       .  S
C2161      F2175   1.383       .  S
C2161      F2176   1.382       .  S
C2163      F2171   1.383       .  S
C2163      F2172   1.384       .  S
C2163      F2173   1.384       .  S
C2177      C2178   1.402       .  A
C2177      C2182   1.409       .  A
C2177      H2187   1.083       .  S
C2178      C2183   1.492       .  S
C2178      C2179   1.417       .  A
C2179      C2180   1.411       .  A
C2179      C2184   1.519       .  S
C2180      C2181   1.407       .  A
C2180      H2185   1.082       .  S
C2181      C2182   1.421       .  A
C2182      C2186   1.519       .  S
C2183      C2188   1.415       .  A
C2183      C2192   1.401       .  A
C2184      F2200   1.382       .  S
C2184      F2201   1.382       .  S
C2184      F2202   1.384       .  S
C2186      F2197   1.383       .  S
C2186      F2198   1.385       .  S
C2186      F2199   1.383       .  S
C2188      C2189   1.409       .  A
C2188      C2193   1.520       .  S
C2189      C2190   1.409       .  A
C2189      H2194   1.083       .  S
C2190      C2191   1.425       .  A
C2191      C2192   1.411       .  A
C2191      C2195   1.519       .  S
C2192      H2196   1.082       .  S
C2193      F2206   1.384       .  S
C2193      F2207   1.382       .  S
C2193      F2208   1.382       .  S
C2195      F2203   1.385       .  S
C2195      F2204   1.384       .  S
C2195      F2205   1.383       .  S
C2209      C2210   1.398       .  A
C2209      C2214   1.406       .  A
C2209      H2219   1.085       .  S
C2210      C2215   1.483   1_545  S
C2210      C2211   1.414       .  A
C2211      C2212   1.406       .  A
C2211      C2216   1.521       .  S
C2212      C2213   1.409       .  A
C2212      H2217   1.085       .  S
C2213      C2214   1.425       .  A
C2214      C2218   1.520       .  S
C2215      C2220   1.413       .  A
C2215      C2224   1.400       .  A
C2216      F2232   1.382   1_545  S
C2216      F2233   1.382   1_545  S
C2216      F2234   1.385       .  S
C2218      F2229   1.385       .  S
C2218      F2230   1.383       .  S
C2218      F2231   1.383       .  S
C2220      C2221   1.406       .  A
C2220      C2225   1.520       .  S
C2221      C2222   1.408       .  A
C2221      H2226   1.082       .  S
C2222      C2223   1.426       .  A
C2223      C2224   1.408       .  A
C2223      C2227   1.521       .  S
C2224      H2228   1.083   1_565  S
C2225      F2238   1.384       .  S
C2225      F2239   1.382   1_565  S
C2225      F2240   1.382       .  S
C2227      F2235   1.385       .  S
C2227      F2236   1.383       .  S
C2227      F2237   1.384       .  S
C2241      C2242   1.400       .  A
C2241      C2246   1.405       .  A
C2241      H2251   1.085       .  S
C2242      C2247   1.481       .  S
C2242      C2243   1.415       .  A
C2243      C2244   1.407       .  A
C2243      C2248   1.519       .  S
C2244      C2245   1.405       .  A
C2244      H2249   1.085       .  S
C2245      C2246   1.419       .  A
C2246      C2250   1.519       .  S
C2247      C2252   1.415       .  A
C2247      C2256   1.401       .  A
C2248      F2264   1.382       .  S
C2248      F2265   1.382       .  S
C2248      F2266   1.385       .  S
C2250      F2261   1.382       .  S
C2250      F2262   1.384       .  S
C2250      F2263   1.384       .  S
C2252      C2253   1.404       .  A
C2252      C2257   1.521       .  S
C2253      C2254   1.404       .  A
C2253      H2258   1.086       .  S
C2254      C2255   1.421       .  A
C2255      C2256   1.409       .  A
C2255      C2259   1.518       .  S
C2256      H2260   1.086       .  S
C2257      F2270   1.384       .  S
C2257      F2271   1.383       .  S
C2257      F2272   1.382       .  S
C2259      F2267   1.383       .  S
C2259      F2268   1.383       .  S
C2259      F2269   1.385       .  S
C2273      C2274   1.399       .  A
C2273      C2278   1.404       .  A
C2273      H2283   1.083       .  S
C2274      C2279   1.479   1_556  S
C2274      C2275   1.412       .  A
C2275      C2276   1.407       .  A
C2275      C2280   1.519       .  S
C2276      C2277   1.406       .  A
C2276      H2281   1.082       .  S
C2277      C2278   1.422       .  A
C2278      C2282   1.521       .  S
C2279      C2284   1.413       .  A
C2279      C2288   1.401       .  A
C2280      F2296   1.382       .  S
C2280      F2297   1.382       .  S
C2280      F2298   1.384       .  S
C2282      F2293   1.385       .  S
C2282      F2294   1.383       .  S
C2282      F2295   1.384       .  S
C2284      C2285   1.403       .  A
C2284      C2289   1.521       .  S
C2285      C2286   1.406       .  A
C2285      H2290   1.082       .  S
C2286      C2287   1.420       .  A
C2287      C2288   1.407       .  A
C2287      C2291   1.519       .  S
C2288      H2292   1.083       .  S
C2289      F2302   1.385       .  S
C2289      F2303   1.382   1_554  S
C2289      F2304   1.382   1_554  S
C2291      F2299   1.383       .  S
C2291      F2300   1.384       .  S
C2291      F2301   1.385       .  S
C2305      C2306   1.401       .  A
C2305      C2310   1.407       .  A
C2305      H2315   1.084       .  S
C2306      C2311   1.482       .  S
C2306      C2307   1.414       .  A
C2307      C2308   1.404       .  A
C2307      C2312   1.520       .  S
C2308      C2309   1.404       .  A
C2308      H2313   1.084       .  S
C2309      C2310   1.421       .  A
C2310      C2314   1.520       .  S
C2311      C2316   1.414       .  A
C2311      C2320   1.399       .  A
C2312      F2328   1.382       .  S
C2312      F2329   1.382       .  S
C2312      F2330   1.384       .  S
C2314      F2325   1.382       .  S
C2314      F2326   1.385       .  S
C2314      F2327   1.384       .  S
C2316      C2317   1.405       .  A
C2316      C2321   1.521       .  S
C2317      C2318   1.408       .  A
C2317      H2322   1.085       .  S
C2318      C2319   1.423       .  A
C2319      C2320   1.406       .  A
C2319      C2323   1.519       .  S
C2320      H2324   1.085       .  S
C2321      F2334   1.385       .  S
C2321      F2335   1.382       .  S
C2321      F2336   1.382       .  S
C2323      F2331   1.385       .  S
C2323      F2332   1.382       .  S
C2323      F2333   1.383       .  S
C2337      C2338   1.399       .  A
C2337      C2342   1.410       .  A
C2337      H2347   1.083       .  S
C2338      C2343   1.482       .  S
C2338      C2339   1.413       .  A
C2339      C2340   1.404       .  A
C2339      C2344   1.521       .  S
C2340      C2341   1.408       .  A
C2340      H2345   1.082       .  S
C2341      C2342   1.426       .  A
C2342      C2346   1.520       .  S
C2343      C2348   1.413       .  A
C2343      C2352   1.400       .  A
C2344      F2360   1.382       .  S
C2344      F2361   1.383       .  S
C2344      F2362   1.384       .  S
C2346      F2357   1.385       .  S
C2346      F2358   1.383       .  S
C2346      F2359   1.384       .  S
C2348      C2349   1.404       .  A
C2348      C2353   1.519       .  S
C2349      C2350   1.405       .  A
C2349      H2354   1.085       .  S
C2350      C2351   1.423       .  A
C2351      C2352   1.406       .  A
C2351      C2355   1.522       .  S
C2352      H2356   1.085       .  S
C2353      F2366   1.385       .  S
C2353      F2367   1.382       .  S
C2353      F2368   1.382       .  S
C2355      F2363   1.383       .  S
C2355      F2364   1.384       .  S
C2355      F2365   1.385       .  S
C2369      C2370   1.398       .  A
C2369      C2374   1.405       .  A
C2369      H2379   1.084       .  S
C2370      C2375   1.480       .  S
C2370      C2371   1.413       .  A
C2371      C2372   1.405       .  A
C2371      C2376   1.520       .  S
C2372      C2373   1.409       .  A
C2372      H2377   1.084       .  S
C2373      C2374   1.424       .  A
C2374      C2378   1.520       .  S
C2375      C2380   1.415       .  A
C2375      C2384   1.401       .  A
C2376      F2392   1.382       .  S
C2376      F2393   1.382       .  S
C2376      F2394   1.385       .  S
C2378      F2389   1.383       .  S
C2378      F2390   1.385       .  S
C2378      F2391   1.383       .  S
C2380      C2381   1.405       .  A
C2380      C2385   1.520       .  S
C2381      C2382   1.402       .  A
C2381      H2386   1.083       .  S
C2382      C2383   1.418       .  A
C2383      C2384   1.405       .  A
C2383      C2387   1.520       .  S
C2384      H2388   1.083       .  S
C2385      F2398   1.384       .  S
C2385      F2399   1.382       .  S
C2385      F2400   1.382       .  S
C2387      F2395   1.384       .  S
C2387      F2396   1.382       .  S
C2387      F2397   1.385       .  S
C2401      C2402   1.399       .  A
C2401      C2406   1.405       .  A
C2401      H2411   1.084       .  S
C2402      C2407   1.477       .  S
C2402      C2403   1.414       .  A
C2403      C2404   1.403       .  A
C2403      C2408   1.520       .  S
C2404      C2405   1.404       .  A
C2404      H2409   1.084       .  S
C2405      C2406   1.421       .  A
C2406      C2410   1.520       .  S
C2407      C2412   1.415       .  A
C2407      C2416   1.400       .  A
C2408      F2424   1.382       .  S
C2408      F2425   1.382       .  S
C2408      F2426   1.385       .  S
C2410      F2421   1.382       .  S
C2410      F2422   1.385       .  S
C2410      F2423   1.384       .  S
C2412      C2413   1.403       .  A
C2412      C2417   1.520       .  S
C2413      C2414   1.403       .  A
C2413      H2418   1.086       .  S
C2414      C2415   1.417       .  A
C2415      C2416   1.404       .  A
C2415      C2419   1.518       .  S
C2416      H2420   1.086       .  S
C2417      F2430   1.385       .  S
C2417      F2431   1.382       .  S
C2417      F2432   1.382       .  S
C2419      F2427   1.384       .  S
C2419      F2428   1.383       .  S
C2419      F2429   1.385       .  S
C2433      C2434   1.399       .  A
C2433      C2438   1.406       .  A
C2433      H2443   1.082       .  S
C2434      C2439   1.480       .  S
C2434      C2435   1.413       .  A
C2435      C2436   1.406       .  A
C2435      C2440   1.520       .  S
C2436      C2437   1.407       .  A
C2436      H2441   1.081       .  S
C2437      C2438   1.424       .  A
C2438      C2442   1.520       .  S
C2439      C2444   1.415       .  A
C2439      C2448   1.400       .  A
C2440      F2456   1.382       .  S
C2440      F2457   1.382       .  S
C2440      F2458   1.385       .  S
C2442      F2453   1.385       .  S
C2442      F2454   1.383       .  S
C2442      F2455   1.384       .  S
C2444      C2445   1.406       .  A
C2444      C2449   1.520       .  S
C2445      C2446   1.405       .  A
C2445      H2450   1.083       .  S
C2446      C2447   1.421       .  A
C2447      C2448   1.405       .  A
C2447      C2451   1.520       .  S
C2448      H2452   1.084       .  S
C2449      F2462   1.385       .  S
C2449      F2463   1.382       .  S
C2449      F2464   1.381       .  S
C2451      F2459   1.383       .  S
C2451      F2460   1.383       .  S
C2451      F2461   1.385       .  S
