geometry optimzed in LAMMPS
_audit_creation_date              2020-12-01 
_audit_creation_method            'lammps2cif' 
_symmetry_space_group_name_H-M    'P1' 
_symmetry_Int_Tables_number       1 
_symmetry_cell_setting            triclinic 
loop_ 
_symmetry_equiv_pos_as_xyz 
  x,y,z 
_cell_length_a                    50.91868398 
_cell_length_b                    50.92362753585579 
_cell_length_c                    50.862058991177456 
_cell_angle_alpha                 89.99829706871556 
_cell_angle_beta                  90.07734958533898 
_cell_angle_gamma                 89.99080435613406 
loop_ 
_atom_site_label 
_atom_site_type_symbol 
_atom_site_fract_x 
_atom_site_fract_y 
_atom_site_fract_z 
_atom_site_charge 
O1          O  0.02943907  0.51084766  0.83791707    -0.72200
O2          O  0.04526541  0.47382573  0.90118665    -0.72500
O3          O  0.07260128  0.48904795  0.85907655    -0.72300
O4          O  0.00228297  0.49608377  0.88092522    -0.72300
O5          O  0.99294180  0.45795092  0.86414184    -0.72300
O6          O  0.06286950  0.45330425  0.83805395    -0.72300
O7          O  0.03779198  0.43702294  0.88101614    -0.72300
O8          O  0.01774188  0.47416144  0.81978809    -0.72400
V9          V  0.03717033  0.49181334  0.86932051     1.35200
V10         V  0.02793931  0.45640009  0.85095731     1.35200
C11         C  0.02087713  0.49872050  0.81791873     0.77000
C12         C  0.04426603  0.44897496  0.90174308     0.77000
C13         C  0.07998148  0.46981269  0.84532927     0.76900
C14         C  0.98606902  0.47767764  0.87761827     0.76900
O15         O  0.02436898  0.34395685  0.03797389    -0.72200
O16         O  0.06240070  0.40614496  0.05414413    -0.72500
O17         O  0.03845491  0.38791074  0.01164152    -0.72300
O18         O  0.04799993  0.36328695  0.08062348    -0.72300
O19         O  0.08362962  0.34297451  0.06904504    -0.72300
O20         O  0.07530697  0.37012651  0.99961459    -0.72300
O21         O  0.09874709  0.38643400  0.04366879    -0.72300
O22         O  0.06039625  0.32543505  0.02498596    -0.72400
V23         V  0.04394957  0.37482220  0.04577856     1.35200
V24         V  0.07876344  0.35646900  0.03444175     1.35200
C25         C  0.03600249  0.32378129  0.02930052     0.77000
C26         C  0.08713137  0.40677037  0.05173574     0.77000
C27         C  0.05599387  0.38495120  0.99443687     0.76900
C28         C  0.06748390  0.34935676  0.08684634     0.76900
O29         O  0.82993400  0.50125030  0.00254848    -0.72200
O30         O  0.89147399  0.48366309  0.96335928    -0.72500
O31         O  0.87387486  0.52693179  0.98695904    -0.72300
O32         O  0.84846222  0.45798451  0.97949780    -0.72300
O33         O  0.82901752  0.46884714  0.94320029    -0.72300
O34         O  0.85386957  0.53881312  0.95112131    -0.72300
O35         O  0.87144592  0.49580713  0.92761072    -0.72300
O36         O  0.81049045  0.51210312  0.96615440    -0.72400
V37         V  0.86049477  0.49277901  0.98247912     1.35200
V38         V  0.84149760  0.50370261  0.94778913     1.35200
C39         C  0.80925890  0.50841888  0.99060672     0.77000
C40         C  0.89187471  0.48730790  0.93871675     0.77000
C41         C  0.86956094  0.54413479  0.96968010     0.76900
C42         C  0.83474322  0.45138202  0.96002423     0.76900
O43         O  0.18734343  0.54516533  0.02968290    -0.72200
O44         O  0.12454359  0.56399082  0.06604517    -0.72500
O45         O  0.16819567  0.58893815  0.05135538    -0.72300
O46         O  0.14258962  0.52016649  0.04365971    -0.72300
O47         O  0.15956854  0.50899901  0.08119568    -0.72300
O48         O  0.18718704  0.57831017  0.08798569    -0.72300
O49         O  0.14343350  0.55399300  0.10299757    -0.72300
O50         O  0.20477209  0.53336111  0.06670473    -0.72400
V51         V  0.15610099  0.55423001  0.04832855     1.35200
V52         V  0.17351600  0.54374155  0.08392507     1.35200
C53         C  0.20722067  0.53692784  0.04230331     0.77000
C54         C  0.12361070  0.56262266  0.09092734     0.77000
C55         C  0.18141998  0.59572242  0.07116508     0.76900
C56         C  0.14506287  0.50342031  0.06170779     0.76900
O57         O  0.98492247  0.54256508  0.19127561    -0.72200
O58         O  0.96864208  0.58217243  0.12937064    -0.72500
O59         O  0.01145807  0.55782107  0.14752431    -0.72300
O60         O  0.94224583  0.56618604  0.17162167    -0.72300
O61         O  0.95324267  0.60172158  0.19224581    -0.72300
O62         O  0.02333085  0.59416858  0.16638291    -0.72300
O63         O  0.97966847  0.61780917  0.15001006    -0.72300
O64         O  0.99706594  0.57860637  0.21045326    -0.72400
V65         V  0.97721434  0.56277811  0.16042135     1.35200
V66         V  0.98823572  0.59726644  0.17955158     1.35200
C67         C  0.99256766  0.55431010  0.21193432     0.77000
C68         C  0.97101393  0.60696749  0.12950518     0.77000
C69         C  0.02851639  0.57542121  0.15081309     0.76900
C70         C  0.93552188  0.58564108  0.18531840     0.76900
O71         O  0.98607025  0.70679522  0.99219383    -0.72200
O72         O  0.95002013  0.64260515  0.97952579    -0.72500
O73         O  0.96507294  0.68318582  0.95015320    -0.72300
O74         O  0.97170580  0.66532248  0.02158578    -0.72300
O75         O  0.93305367  0.68160129  0.02963734    -0.72300
O76         O  0.92927181  0.70478115  0.95840986    -0.72300
O77         O  0.91289689  0.66272711  0.98514226    -0.72300
O78         O  0.94917349  0.72493583  0.00304630    -0.72400
V79         V  0.96755813  0.67491336  0.98609368     1.35200
V80         V  0.93185427  0.69329701  0.99399470     1.35200
C81         C  0.97359406  0.72705404  0.99950531     0.77000
C82         C  0.92513802  0.64195546  0.97963319     0.77000
C83         C  0.94613514  0.69683624  0.94193268     0.76900
C84         C  0.95300899  0.66891323  0.03735071     0.76900
O85         O  0.82894024  0.54091118  0.52790204    -0.72200
O86         O  0.89162228  0.56010956  0.56438972    -0.72500
O87         O  0.87425555  0.51650139  0.54139611    -0.72300
O88         O  0.84716036  0.58447998  0.55012042    -0.72300
O89         O  0.82807380  0.57284350  0.58632999    -0.72300
O90         O  0.85802746  0.50456282  0.57897746    -0.72300
O91         O  0.87291982  0.54973858  0.60129058    -0.72300
O92         O  0.81193975  0.52778121  0.56461823    -0.72400
V93         V  0.86008188  0.55016924  0.54661958     1.35200
V94         V  0.84299200  0.53882330  0.58204957     1.35200
C95         C  0.80923333  0.53211267  0.54033968     0.77000
C96         C  0.89284427  0.55814307  0.58920555     0.77000
C97         C  0.87232893  0.49945993  0.55924692     0.76900
C98         C  0.83307316  0.59049603  0.56953756     0.76900
O99         O  0.99909092  0.34361762  0.53420646    -0.72200
O100        O  0.96263037  0.40758728  0.54807806    -0.72500
O101        O  0.97775370  0.36622760  0.57684649    -0.72300
O102        O  0.98466223  0.38601602  0.50558542    -0.72300
O103        O  0.94583048  0.37044974  0.49718303    -0.72300
O104        O  0.94268224  0.34391882  0.56736454    -0.72300
O105        O  0.92572524  0.38690878  0.54262123    -0.72300
O106        O  0.96243331  0.32594011  0.52180902    -0.72400
V107        V  0.98043509  0.37541667  0.54095351     1.35200
V108        V  0.94493041  0.35702938  0.53231289     1.35200
C109        C  0.98676928  0.32363164  0.52581041     0.77000
C110        C  0.93774425  0.40786008  0.54798491     0.77000
C111        C  0.95914606  0.35172837  0.58436949     0.76900
C112        C  0.96569145  0.38351358  0.48980520     0.76900
O113        O  0.98563801  0.50944545  0.33234645    -0.72200
O114        O  0.97251900  0.46972190  0.39504317    -0.72500
O115        O  0.01346959  0.49596134  0.37564602    -0.72300
O116        O  0.94453167  0.48434156  0.35287420    -0.72300
O117        O  0.95638329  0.44914501  0.33215559    -0.72300
O118        O  0.02667033  0.46005858  0.35689035    -0.72300
O119        O  0.98465759  0.43445014  0.37435935    -0.72300
O120        O  0.99891995  0.47393491  0.31317158    -0.72400
V121        V  0.97936406  0.48923061  0.36350275     1.35200
V122        V  0.99146989  0.45514182  0.34438291     1.35200
C123        C  0.99387642  0.49810940  0.31167030     0.77000
C124        C  0.97686878  0.44517049  0.39525563     0.77000
C125        C  0.03142029  0.47939168  0.37191573     0.76900
C126        C  0.93831586  0.46492463  0.33892800     0.76900
O127        O  0.18803883  0.50009740  0.49963548    -0.72200
O128        O  0.12403764  0.48990456  0.46149630    -0.72500
O129        O  0.16410765  0.45923158  0.47667906    -0.72300
O130        O  0.14707959  0.53064891  0.48531711    -0.72300
O131        O  0.16351782  0.53955950  0.44693138    -0.72300
O132        O  0.18719421  0.46863868  0.44215882    -0.72300
O133        O  0.14546792  0.49554252  0.42505226    -0.72300
O134        O  0.20654432  0.51271001  0.46337685    -0.72400
V135        V  0.15622007  0.49519217  0.48016747     1.35200
V136        V  0.17541893  0.50402905  0.44512810     1.35200
C137        C  0.20845738  0.50774799  0.48758923     0.77000
C138        C  0.12412622  0.49071793  0.43655944     0.77000
C139        C  0.17886134  0.45164114  0.45835947     0.76900
C140        C  0.15062214  0.54684251  0.46693347     0.76900
O141        O  0.02629703  0.53724297  0.69589968    -0.72200
O142        O  0.04701253  0.57451906  0.63443558    -0.72500
O143        O  0.07082096  0.55881180  0.67857914    -0.72300
O144        O  0.00253085  0.55260099  0.65066716    -0.72300
O145        O  0.99113138  0.58953805  0.66860635    -0.72300
O146        O  0.06020225  0.59542023  0.69755167    -0.72300
O147        O  0.03639171  0.61119861  0.65327993    -0.72300
O148        O  0.01493369  0.57396383  0.71412780    -0.72400
V149        V  0.03633096  0.55645289  0.66536186     1.35200
V150        V  0.02576543  0.59175753  0.68317374     1.35200
C151        C  0.01796354  0.54937958  0.71594895     0.77000
C152        C  0.04495901  0.59926009  0.63329823     0.77000
C153        C  0.07750752  0.57834009  0.69226758     0.76900
C154        C  0.98570102  0.57058774  0.65338021     0.76900
O155        O  0.02074334  0.69747672  0.49476994    -0.72200
O156        O  0.06399776  0.63815410  0.47903511    -0.72500
O157        O  0.03907239  0.65524820  0.52168702    -0.72300
O158        O  0.04538147  0.67899425  0.45202114    -0.72300
O159        O  0.08048341  0.70089835  0.46224143    -0.72300
O160        O  0.07334113  0.67778950  0.53343973    -0.72300
O161        O  0.09833362  0.66057188  0.49094612    -0.72300
O162        O  0.05561710  0.71950685  0.50512968    -0.72400
V163        V  0.04287127  0.66802788  0.48720842     1.35200
V164        V  0.07616296  0.68944272  0.49777736     1.35200
C165        C  0.03101206  0.71901476  0.50190969     0.77000
C166        C  0.08857662  0.63935871  0.48276472     0.77000
C167        C  0.05587770  0.66095764  0.53898786     0.76900
C168        C  0.06447216  0.69297451  0.44484581     0.76900
O169        O  0.52800206  0.53153032  0.83614653    -0.72200
O170        O  0.54690615  0.57117670  0.89727852    -0.72500
O171        O  0.50291515  0.54824358  0.88048479    -0.72300
O172        O  0.57200584  0.55404869  0.85462168    -0.72300
O173        O  0.56190740  0.59059092  0.83530930    -0.72300
O174        O  0.49142728  0.58359734  0.85947714    -0.72300
O175        O  0.53484437  0.60674686  0.87710087    -0.72300
O176        O  0.51836235  0.56782008  0.81608985    -0.72400
V177        V  0.53709171  0.55180375  0.86660350     1.35200
V178        V  0.52675454  0.58637429  0.84722767     1.35200
C179        C  0.52096482  0.54318514  0.81521685     0.77000
C180        C  0.54393183  0.59589742  0.89744919     0.77000
C181        C  0.48596903  0.56570692  0.87588689     0.76900
C182        C  0.57923617  0.57390815  0.84183956     0.76900
O183        O  0.32726778  0.54563243  0.99957990    -0.72200
O184        O  0.38984149  0.56107470  0.96082515    -0.72500
O185        O  0.34690742  0.58773040  0.97513103    -0.72300
O186        O  0.37133738  0.51917797  0.98630022    -0.72300
O187        O  0.35409766  0.50627625  0.94947942    -0.72300
O188        O  0.32642081  0.57546917  0.93986843    -0.72300
O189        O  0.36974150  0.54971834  0.92502688    -0.72300
O190        O  0.30932121  0.53153705  0.96364117    -0.72400
V191        V  0.35839590  0.55307467  0.97984444     1.35200
V192        V  0.34011357  0.54090909  0.94527862     1.35200
C193        C  0.30722437  0.53655188  0.98778916     0.77000
C194        C  0.39021161  0.55814608  0.93601619     0.77000
C195        C  0.33289433  0.59367158  0.95561645     0.76900
C196        C  0.36887175  0.50166802  0.96904203     0.76900
O197        O  0.49616828  0.34714228  0.99220321    -0.72200
O198        O  0.45559683  0.40827924  0.97803476    -0.72500
O199        O  0.48055434  0.38923669  0.02006588    -0.72300
O200        O  0.47178463  0.36701813  0.94998055    -0.72300
O201        O  0.43789092  0.34387949  0.96107686    -0.72300
O202        O  0.44337719  0.37123350  0.03076526    -0.72300
O203        O  0.42000608  0.38627286  0.98622424    -0.72300
O204        O  0.46102977  0.32747580  0.00587074    -0.72400
V205        V  0.47539503  0.37745493  0.98531510     1.35200
V206        V  0.44131165  0.35745711  0.99586191     1.35200
C207        C  0.48546471  0.32675457  0.00154356     0.77000
C208        C  0.43076302  0.40747260  0.97938634     0.77000
C209        C  0.46282976  0.38549958  0.03691721     0.76900
C210        C  0.45332157  0.35192089  0.94329517     0.76900
O211        O  0.48325177  0.50764351  0.19672029    -0.72200
O212        O  0.47240386  0.46981653  0.13266109    -0.72500
O213        O  0.44332469  0.48166809  0.17449405    -0.72300
O214        O  0.51249822  0.49650490  0.15375516    -0.72300
O215        O  0.52648243  0.46087299  0.17247750    -0.72300
O216        O  0.45627384  0.44577482  0.19359757    -0.72300
O217        O  0.48627241  0.43436778  0.15198858    -0.72300
O218        O  0.49661349  0.47179755  0.21528249    -0.72400
V219        V  0.47824432  0.48830181  0.16486535     1.35200
V220        V  0.49121690  0.45397118  0.18308557     1.35200
C221        C  0.49103944  0.49582824  0.21729580     0.77000
C222        C  0.47761842  0.44549882  0.13161301     0.77000
C223        C  0.43779781  0.46106228  0.18696251     0.76900
C224        C  0.53107968  0.48075908  0.15824962     0.76900
O225        O  0.52594746  0.69774569  0.03197290    -0.72200
O226        O  0.56931231  0.63974744  0.05160550    -0.72500
O227        O  0.55088631  0.68257155  0.07555716    -0.72300
O228        O  0.54373332  0.65395730  0.00766558    -0.72300
O229        O  0.57866196  0.67482682  0.99471149    -0.72300
O230        O  0.58521733  0.70455226  0.06330507    -0.72300
O231        O  0.60367040  0.66160840  0.03888809    -0.72300
O232        O  0.56055546  0.71879199  0.01897641    -0.72400
V233        V  0.54810457  0.66893067  0.04133062     1.35200
V234        V  0.58130354  0.68958797  0.02912372     1.35200
C235        C  0.53609550  0.71863818  0.02295604     0.77000
C236        C  0.59399848  0.64106914  0.04877080     0.77000
C237        C  0.56906788  0.69833013  0.08120884     0.76900
C238        C  0.56031629  0.65873426  0.98993964     0.76900
O239        O  0.69005747  0.50197559  0.03570718    -0.72200
O240        O  0.62657788  0.49198338  0.07383762    -0.72500
O241        O  0.64994492  0.53259734  0.05050375    -0.72300
O242        O  0.66599917  0.46096836  0.05812460    -0.72300
O243        O  0.68870906  0.46927884  0.09323009    -0.72300
O244        O  0.66765398  0.54122033  0.08844235    -0.72300
O245        O  0.64796410  0.49778594  0.11036550    -0.72300
O246        O  0.70964330  0.51287574  0.07190572    -0.72400
V247        V  0.65858740  0.49704885  0.05523247     1.35200
V248        V  0.67823286  0.50517577  0.09027099     1.35200
C249        C  0.71081559  0.50928056  0.04740297     0.77000
C250        C  0.62659073  0.49323990  0.09871344     0.77000
C251        C  0.65485615  0.54887609  0.06846094     0.76900
C252        C  0.68014345  0.45270463  0.07670050     0.76900
O253        O  0.49102055  0.70414365  0.54074352    -0.72200
O254        O  0.45417204  0.64005589  0.55097897    -0.72500
O255        O  0.47796373  0.66274259  0.51047332    -0.72300
O256        O  0.46765667  0.68040402  0.58144770    -0.72300
O257        O  0.43337921  0.70365333  0.57083611    -0.72300
O258        O  0.43932980  0.67802633  0.50075141    -0.72300
O259        O  0.41733400  0.66080167  0.54500366    -0.72300
O260        O  0.45517051  0.72212688  0.52651283    -0.72400
V261        V  0.47210534  0.67232080  0.54568871     1.35200
V262        V  0.43701123  0.69095864  0.53587225     1.35200
C263        C  0.47939518  0.72415134  0.53164037     0.77000
C264        C  0.42934070  0.63971140  0.55000170     0.77000
C265        C  0.45950225  0.66508978  0.49411059     0.76900
C266        C  0.44887363  0.69493808  0.58823169     0.76900
O267        O  0.48027682  0.53665631  0.33930738    -0.72200
O268        O  0.46773043  0.57575433  0.40245770    -0.72500
O269        O  0.43968701  0.56232151  0.36034068    -0.72300
O270        O  0.50839106  0.54907950  0.38284766    -0.72300
O271        O  0.52244079  0.58423427  0.36322132    -0.72300
O272        O  0.45184917  0.59844459  0.34147837    -0.72300
O273        O  0.48202474  0.61078985  0.38269509    -0.72300
O274        O  0.49261685  0.57272290  0.32023646    -0.72400
V275        V  0.47439212  0.55655855  0.37076765     1.35200
V276        V  0.48706676  0.59076708  0.35212902     1.35200
C277        C  0.48740515  0.54860312  0.31859426     0.77000
C278        C  0.47312270  0.60006533  0.40308149     0.77000
C279        C  0.43358854  0.58278606  0.34792696     0.76900
C280        C  0.52672105  0.56504515  0.37857262     0.76900
O281        O  0.68839138  0.54044333  0.49809513    -0.72200
O282        O  0.62400202  0.55069543  0.46072360    -0.72500
O283        O  0.64722463  0.50987988  0.48471340    -0.72300
O284        O  0.66416153  0.58125755  0.47495794    -0.72300
O285        O  0.68613188  0.57154021  0.43975433    -0.72300
O286        O  0.66379418  0.50027986  0.44655343    -0.72300
O287        O  0.64457440  0.54363099  0.42410687    -0.72300
O288        O  0.70662806  0.52804325  0.46170265    -0.72400
V289        V  0.65635103  0.54530761  0.47899014     1.35200
V290        V  0.67503332  0.53597982  0.44379346     1.35200
C291        C  0.70874606  0.53272220  0.48595763     0.77000
C292        C  0.62364798  0.54966089  0.43578143     0.77000
C293        C  0.65135925  0.49318186  0.46690802     0.76900
C294        C  0.67792686  0.58872836  0.45579919     0.76900
O295        O  0.52975789  0.33580298  0.49669393    -0.72200
O296        O  0.56892916  0.39781775  0.48128352    -0.72500
O297        O  0.55247356  0.35618612  0.45413484    -0.72300
O298        O  0.54538663  0.37817567  0.52421851    -0.72300
O299        O  0.58148186  0.35815156  0.53503533    -0.72300
O300        O  0.58883194  0.33607813  0.46355361    -0.72300
O301        O  0.60483043  0.37740100  0.49213564    -0.72300
O302        O  0.56603265  0.31581550  0.50658093    -0.72400
V303        V  0.54982503  0.36658686  0.48940555     1.35200
V304        V  0.58455786  0.34716004  0.49920265     1.35200
C305        C  0.54150951  0.31483956  0.50322194     0.77000
C306        C  0.59368223  0.39792759  0.48392359     0.77000
C307        C  0.57185551  0.34282868  0.44658966     0.76900
C308        C  0.56232251  0.37268002  0.54145098     0.76900
O309        O  0.52920588  0.49990478  0.69336317    -0.72200
O310        O  0.54888097  0.45714771  0.63469238    -0.72500
O311        O  0.50554350  0.48329701  0.64832273    -0.72300
O312        O  0.57245380  0.47446681  0.67838535    -0.72300
O313        O  0.55972311  0.43894957  0.69806115    -0.72300
O314        O  0.49068752  0.44965729  0.66995616    -0.72300
O315        O  0.53337338  0.42301599  0.65511548    -0.72300
O316        O  0.51671480  0.46490106  0.71402532    -0.72400
V317        V  0.53863012  0.47810441  0.66414583     1.35200
V318        V  0.52532144  0.44485183  0.68397819     1.35200
C319        C  0.52073920  0.48935747  0.71431474     0.77000
C320        C  0.54395781  0.43275224  0.63498297     0.77000
C321        C  0.48695955  0.46769990  0.65315471     0.76900
C322        C  0.57796703  0.45502614  0.69266901     0.76900
O323        O  0.32921664  0.50072264  0.52923428    -0.72200
O324        O  0.39242102  0.48439835  0.56610499    -0.72500
O325        O  0.34982755  0.45789565  0.55120936    -0.72300
O326        O  0.37278980  0.52734584  0.54331565    -0.72300
O327        O  0.35574693  0.53807754  0.58085596    -0.72300
O328        O  0.32959603  0.46814151  0.58738770    -0.72300
O329        O  0.37303276  0.49352764  0.60287134    -0.72300
O330        O  0.31122019  0.51253983  0.56590623    -0.72400
V331        V  0.36062388  0.49291593  0.54813490     1.35200
V332        V  0.34265712  0.50299265  0.58351653     1.35200
C333        C  0.30904566  0.50868476  0.54149712     0.77000
C334        C  0.39338258  0.48584718  0.59095554     0.77000
C335        C  0.33630614  0.45099103  0.57066302     0.76900
C336        C  0.36967401  0.54421023  0.56116113     0.76900
O337        O  0.52056821  0.84637389  0.53217925    -0.72200
O338        O  0.56266479  0.90686924  0.54630081    -0.72500
O339        O  0.53464472  0.88998096  0.50485210    -0.72300
O340        O  0.54792275  0.86430484  0.57313039    -0.72300
O341        O  0.58291054  0.84441315  0.55937618    -0.72300
O342        O  0.56846693  0.86890700  0.48986988    -0.72300
O343        O  0.59661838  0.88629065  0.53069719    -0.72300
O344        O  0.55541410  0.82603156  0.51856939    -0.72400
V345        V  0.54204189  0.87648040  0.53869259     1.35200
V346        V  0.57511445  0.85676029  0.52480467     1.35200
C347        C  0.53131712  0.82536257  0.52426647     0.77000
C348        C  0.58693968  0.90665682  0.54084799     0.77000
C349        C  0.54950276  0.88451344  0.48576500     0.76900
C350        C  0.56781116  0.85044363  0.57820671     0.76900
O351        O  0.52425971  0.99913582  0.31991623    -0.72200
O352        O  0.53565334  0.96484326  0.38570284    -0.72500
O353        O  0.56586484  0.97818558  0.34463293    -0.72300
O354        O  0.49447583  0.98643314  0.36168303    -0.72300
O355        O  0.48574009  0.94766296  0.34617683    -0.72300
O356        O  0.55723377  0.94169001  0.32441124    -0.72300
O357        O  0.52941077  0.92717007  0.36671680    -0.72300
O358        O  0.51349037  0.96173613  0.30255386    -0.72400
V359        V  0.52988476  0.98145825  0.35254124     1.35200
V360        V  0.52156090  0.94532665  0.33516462     1.35200
C361        C  0.51711647  0.98613173  0.29988088     0.77000
C362        C  0.53437793  0.94003761  0.38733596     0.77000
C363        C  0.57390325  0.95868635  0.33166888     0.76900
C364        C  0.47835226  0.96792274  0.35861153     0.76900
O365        O  0.49340652  0.19758638  0.49045085    -0.72200
O366        O  0.45500654  0.13476408  0.47814727    -0.72500
O367        O  0.47115132  0.17461376  0.44831258    -0.72300
O368        O  0.47768805  0.15702324  0.52004451    -0.72300
O369        O  0.43940642  0.17417913  0.52792837    -0.72300
O370        O  0.43679402  0.19840559  0.45709340    -0.72300
O371        O  0.41857407  0.15641913  0.48294070    -0.72300
O372        O  0.45741011  0.21695879  0.50213567    -0.72400
V373        V  0.47367761  0.16644993  0.48441393     1.35200
V374        V  0.43874639  0.18620779  0.49242551     1.35200
C375        C  0.48194895  0.21804290  0.49881033     0.77000
C376        C  0.43015147  0.13506193  0.47803235     0.77000
C377        C  0.45289609  0.18937412  0.44045649     0.76900
C378        C  0.45923779  0.16147564  0.53592836     0.76900
O379        O  0.32972926  0.99769397  0.49058140    -0.72200
O380        O  0.38828843  0.98033003  0.44698048    -0.72500
O381        O  0.37357444  0.02249888  0.47455684    -0.72300
O382        O  0.34542708  0.95549517  0.46403086    -0.72300
O383        O  0.32421998  0.96881808  0.42959850    -0.72300
O384        O  0.35263777  0.03766660  0.44066417    -0.72300
O385        O  0.36678476  0.99526792  0.41320755    -0.72300
O386        O  0.30879448  0.01167354  0.45620654    -0.72400
V387        V  0.35879963  0.98938020  0.46840353     1.35200
V388        V  0.33842890  0.00314350  0.43560828     1.35200
C389        C  0.30887523  0.00698153  0.48051810     0.77000
C390        C  0.38736744  0.98521982  0.42255744     0.77000
C391        C  0.36891858  0.04134179  0.45922236     0.76900
C392        C  0.33042584  0.95027489  0.44508204     0.76900
O393        O  0.48369708  0.03756382  0.69113936    -0.72200
O394        O  0.46586560  0.07999483  0.63211154    -0.72500
O395        O  0.50823239  0.05292524  0.64661559    -0.72300
O396        O  0.44132407  0.06412031  0.67567053    -0.72300
O397        O  0.45507806  0.09930605  0.69536132    -0.72300
O398        O  0.52372696  0.08653935  0.66786269    -0.72300
O399        O  0.48189924  0.11405418  0.65223567    -0.72300
O400        O  0.49721175  0.07227266  0.71179749    -0.72400
V401        V  0.47516216  0.05927588  0.66184759     1.35200
V402        V  0.48925913  0.09235561  0.68150118     1.35200
C403        C  0.49258676  0.04794136  0.71198740     0.77000
C404        C  0.47118640  0.10427092  0.63211616     0.77000
C405        C  0.52714866  0.06814230  0.65143505     0.76900
C406        C  0.43649507  0.08353463  0.69017063     0.76900
O407        O  0.68620254  0.04559937  0.52757646    -0.72200
O408        O  0.62166880  0.05564464  0.56433564    -0.72500
O409        O  0.66163481  0.08642732  0.54996006    -0.72300
O410        O  0.64530455  0.01496345  0.54110545    -0.72300
O411        O  0.66106828  0.00610808  0.57982661    -0.72300
O412        O  0.68457346  0.07705714  0.58478938    -0.72300
O413        O  0.64242050  0.05012221  0.60116598    -0.72300
O414        O  0.70428905  0.03289855  0.56400264    -0.72400
V415        V  0.65412249  0.05043220  0.54637322     1.35200
V416        V  0.67283691  0.04166263  0.58173470     1.35200
C417        C  0.70639131  0.03742468  0.53967684     0.77000
C418        C  0.62121423  0.05491249  0.58924003     0.77000
C419        C  0.67600247  0.09396066  0.56863271     0.76900
C420        C  0.64863705  0.99876862  0.55953023     0.76900
O421        O  0.49214462  0.83746807  0.03170165    -0.72200
O422        O  0.45527252  0.90136332  0.04554932    -0.72500
O423        O  0.46942505  0.85959176  0.07383120    -0.72300
O424        O  0.47853900  0.88020438  0.00340654    -0.72300
O425        O  0.44051333  0.86365603  0.99315597    -0.72300
O426        O  0.43374125  0.83884364  0.06334736    -0.72300
O427        O  0.41848986  0.88139168  0.03731461    -0.72300
O428        O  0.45541321  0.81944650  0.01953194    -0.72400
V429        V  0.47322210  0.86921190  0.03832216     1.35200
V430        V  0.43784598  0.85106859  0.02837204     1.35200
C431        C  0.47973086  0.81733004  0.02393710     0.77000
C432        C  0.43038399  0.90184186  0.04458067     0.77000
C433        C  0.44988296  0.84620418  0.08082607     0.76900
C434        C  0.46046006  0.87704731  0.98678038     0.76900
O435        O  0.32311317  0.03489273  0.02581049    -0.72200
O436        O  0.38540667  0.05713350  0.06085764    -0.72500
O437        O  0.36931501  0.01222714  0.03926735    -0.72300
O438        O  0.34046961  0.07955714  0.04654553    -0.72300
O439        O  0.32358114  0.06905672  0.08419737    -0.72300
O440        O  0.35288003  0.00023185  0.07671531    -0.72300
O441        O  0.36817283  0.04558738  0.09808117    -0.72300
O442        O  0.30636594  0.02367537  0.06330850    -0.72400
V443        V  0.35414653  0.04554845  0.04378755     1.35200
V444        V  0.33790661  0.03465893  0.07977299     1.35200
C445        C  0.30348587  0.02693935  0.03889766     0.77000
C446        C  0.38708929  0.05554901  0.08567842     0.77000
C447        C  0.36784128  0.99543579  0.05734852     0.76900
C448        C  0.32821392  0.08636757  0.06689442     0.76900
O449        O  0.48479648  0.00368263  0.83167228    -0.72200
O450        O  0.47409062  0.96411043  0.89470444    -0.72500
O451        O  0.51491932  0.98933832  0.87265587    -0.72300
O452        O  0.44400537  0.97943843  0.85452096    -0.72300
O453        O  0.45375453  0.94362495  0.83376327    -0.72300
O454        O  0.52574190  0.95325133  0.85253916    -0.72300
O455        O  0.48462297  0.92861421  0.87349656    -0.72300
O456        O  0.49498222  0.96751149  0.81143535    -0.72400
V457        V  0.47973562  0.98349149  0.86296600     1.35200
V458        V  0.48964389  0.94902393  0.84311493     1.35200
C459        C  0.49098208  0.99191062  0.81060958     0.77000
C460        C  0.47754230  0.93943254  0.89455723     0.77000
C461        C  0.53226502  0.97287024  0.86640595     0.76900
C462        C  0.43647454  0.95974383  0.84155886     0.76900
O463        O  0.52398842  0.03328029  0.18013949    -0.72200
O464        O  0.54438613  0.07669018  0.12207755    -0.72500
O465        O  0.56849225  0.05623015  0.16398335    -0.72300
O466        O  0.50002904  0.05318363  0.13681735    -0.72300
O467        O  0.48861954  0.08737592  0.15965936    -0.72300
O468        O  0.55881695  0.09164596  0.18566573    -0.72300
O469        O  0.53261842  0.11103322  0.14449649    -0.72300
O470        O  0.51454687  0.06834780  0.20224271    -0.72400
V471        V  0.53390680  0.05541525  0.15128161     1.35200
V472        V  0.52378583  0.08882433  0.17272665     1.35200
C473        C  0.51656146  0.04369915  0.20158681     0.77000
C474        C  0.54138783  0.10138077  0.12347861     0.77000
C475        C  0.57579167  0.07502549  0.17823295     0.76900
C476        C  0.48317272  0.07042077  0.14226044     0.76900
O477        O  0.52824288  0.20747945  0.99223422    -0.72200
O478        O  0.56646215  0.14611659  0.97292738    -0.72500
O479        O  0.54353565  0.16342296  0.01695739    -0.72300
O480        O  0.55028838  0.18943758  0.94824673    -0.72300
O481        O  0.58611849  0.20981346  0.95874608    -0.72300
O482        O  0.58093170  0.18086723  0.02796241    -0.72300
O483        O  0.60282649  0.16602028  0.98259502    -0.72300
O484        O  0.56467934  0.22594791  0.00432561    -0.72400
V485        V  0.54782905  0.17702290  0.98288303     1.35200
V486        V  0.58289623  0.19541102  0.99331124     1.35200
C487        C  0.54010131  0.22741972  0.00119701     0.77000
C488        C  0.59135303  0.14582178  0.97407801     0.77000
C489        C  0.56137451  0.16661978  0.03380222     0.76900
C490        C  0.56927609  0.20372807  0.94140791     0.76900
O491        O  0.68848573  0.00755373  0.98795663    -0.72200
O492        O  0.62736033  0.98869000  0.94866968    -0.72500
O493        O  0.67044508  0.96412330  0.96513768    -0.72300
O494        O  0.64400151  0.03240605  0.97230574    -0.72300
O495        O  0.66513172  0.04510697  0.93746344    -0.72300
O496        O  0.68813644  0.97415203  0.92771501    -0.72300
O497        O  0.64642291  0.00268217  0.91312507    -0.72300
O498        O  0.70839854  0.01669429  0.95139968    -0.72400
V499        V  0.65802627  0.99858224  0.96789135     1.35200
V500        V  0.67679914  0.00956950  0.93318090     1.35200
C501        C  0.70941632  0.01385259  0.97602607     0.77000
C502        C  0.62666376  0.99263815  0.92407437     0.77000
C503        C  0.68264286  0.95694206  0.94488702     0.76900
C504        C  0.64886594  0.05004434  0.95568751     0.76900
O505        O  0.99490925  0.20172885  0.03635663    -0.72200
O506        O  0.95580873  0.13833059  0.04400317    -0.72500
O507        O  0.97892977  0.16295032  0.00396740    -0.72300
O508        O  0.97224288  0.17627924  0.07673280    -0.72300
O509        O  0.93839027  0.20101203  0.06895706    -0.72300
O510        O  0.94053085  0.18027142  0.99700036    -0.72300
O511        O  0.91965808  0.16081049  0.04084449    -0.72300
O512        O  0.95903179  0.22166483  0.02504210    -0.72400
V513        V  0.97487891  0.17027205  0.04012741     1.35200
V514        V  0.94013943  0.19068890  0.03305609     1.35200
C515        C  0.98351630  0.22261221  0.02904409     0.77000
C516        C  0.93093544  0.13898807  0.04383706     0.77000
C517        C  0.96016184  0.16764042  0.98844626     0.76900
C518        C  0.95438664  0.19116284  0.08530247     0.76900
O519        O  0.83052652  0.00000485  0.02077828    -0.72200
O520        O  0.88974768  0.98439432  0.06469828    -0.72500
O521        O  0.84746595  0.95816506  0.04769503    -0.72300
O522        O  0.87373626  0.02626995  0.03699237    -0.72300
O523        O  0.85209441  0.04063072  0.07069585    -0.72300
O524        O  0.82630048  0.97132266  0.08220170    -0.72300
O525        O  0.86792952  0.99910425  0.09830666    -0.72300
O526        O  0.80930665  0.01324263  0.05515605    -0.72400
V527        V  0.85991930  0.99255829  0.04312383     1.35200
V528        V  0.83922810  0.00584180  0.07584893     1.35200
C529        C  0.80941410  0.00865691  0.03077229     0.77000
C530        C  0.88874897  0.98945250  0.08910386     0.77000
C531        C  0.83290837  0.95280747  0.06695769     0.76900
C532        C  0.86836581  0.04492012  0.05238852     0.76900
O533        O  0.02374878  0.00590932  0.19673192    -0.72200
O534        O  0.03537329  0.97241610  0.13042234    -0.72500
O535        O  0.99390988  0.99328419  0.15459389    -0.72300
O536        O  0.06542719  0.98597492  0.17135500    -0.72300
O537        O  0.05743850  0.94929276  0.19175548    -0.72300
O538        O  0.98578920  0.95408259  0.16920599    -0.72300
O539        O  0.03008388  0.93456268  0.14932714    -0.72300
O540        O  0.01326955  0.96808403  0.21343497    -0.72400
V541        V  0.02938688  0.98873208  0.16373496     1.35200
V542        V  0.02166038  0.95228808  0.18075397     1.35200
C543        C  0.01712302  0.99236166  0.21658642     0.77000
C544        C  0.03494733  0.94755964  0.12882577     0.77000
C545        C  0.97816371  0.97434031  0.15680018     0.76900
C546        C  0.07370381  0.96652288  0.18413447     0.76900
O547        O  0.01650933  0.84649214  0.98920325    -0.72200
O548        O  0.05381057  0.90944129  0.97330853    -0.72500
O549        O  0.03987540  0.86661519  0.94653920    -0.72300
O550        O  0.02991320  0.89056404  0.01582916    -0.72300
O551        O  0.06704403  0.87333602  0.02777509    -0.72300
O552        O  0.07568405  0.84652603  0.95815748    -0.72300
O553        O  0.09020587  0.88983599  0.98380284    -0.72300
O554        O  0.05289687  0.82871367  0.00233911    -0.72400
V555        V  0.03563527  0.87779773  0.98154806     1.35200
V556        V  0.07067284  0.85983653  0.99289448     1.35200
C557        C  0.02866253  0.82652016  0.99783914     0.77000
C558        C  0.07859791  0.91001614  0.97546267     0.77000
C559        C  0.05975028  0.85333570  0.94024091     0.76900
C560        C  0.04737857  0.88760760  0.03317827     0.76900
O561        O  0.18455895  0.04279752  0.99599880    -0.72200
O562        O  0.12471148  0.06551974  0.95682611    -0.72500
O563        O  0.13810511  0.02128506  0.98107889    -0.72300
O564        O  0.16992338  0.08734628  0.97218321    -0.72300
O565        O  0.18827536  0.07417832  0.93613818    -0.72300
O566        O  0.15613170  0.00731530  0.94501307    -0.72300
O567        O  0.14331154  0.05186910  0.92102122    -0.72300
O568        O  0.20220642  0.02915496  0.95979933    -0.72400
V569        V  0.15477007  0.05389421  0.97592554     1.35200
V570        V  0.17226464  0.04081405  0.94129270     1.35200
C571        C  0.20412021  0.03282157  0.98421370     0.77000
C572        C  0.12385319  0.06230842  0.93211005     0.77000
C573        C  0.14031581  0.00366629  0.96384367     0.76900
C574        C  0.18370579  0.09251930  0.95227929     0.76900
O575        O  0.98512802  0.03960657  0.83556532    -0.72200
O576        O  0.96678071  0.08253149  0.89473999    -0.72500
O577        O  0.94178981  0.06425842  0.85233890    -0.72300
O578        O  0.01011394  0.05738853  0.87935920    -0.72300
O579        O  0.02304927  0.09119711  0.85674235    -0.72300
O580        O  0.95286901  0.10009504  0.83220757    -0.72300
O581        O  0.98075666  0.11680405  0.87352825    -0.72300
O582        O  0.99549121  0.07487305  0.81411026    -0.72400
V583        V  0.97629608  0.06151334  0.86500814     1.35200
V584        V  0.98786741  0.09496566  0.84441588     1.35200
C585        C  0.99251251  0.05025324  0.81423941     0.77000
C586        C  0.97106683  0.10706998  0.89412157     0.77000
C587        C  0.93523386  0.08380192  0.83866352     0.76900
C588        C  0.02779376  0.07377341  0.87386190     0.76900
O589        O  0.02701818  0.03492465  0.33831871    -0.72200
O590        O  0.04872610  0.07832358  0.39598033    -0.72500
O591        O  0.00417162  0.05400617  0.38280236    -0.72300
O592        O  0.07161461  0.05871991  0.35313800    -0.72300
O593        O  0.06040313  0.09427151  0.33253753    -0.72300
O594        O  0.99105526  0.08779447  0.36023263    -0.72300
O595        O  0.03486218  0.11253617  0.37453417    -0.72300
O596        O  0.01629285  0.07003613  0.31677562    -0.72400
V597        V  0.03749217  0.05703959  0.36705709     1.35200
V598        V  0.02581124  0.09037638  0.34630132     1.35200
C599        C  0.01881859  0.04542928  0.31717075     0.77000
C600        C  0.04527113  0.10296990  0.39486126     0.77000
C601        C  0.98654270  0.07061619  0.37767826     0.76900
C602        C  0.07803981  0.07782790  0.33888637     0.76900
O603        O  0.82950750  0.04655543  0.50381373    -0.72200
O604        O  0.89332885  0.06117781  0.46706783    -0.72500
O605        O  0.85120703  0.08877083  0.48134217    -0.72300
O606        O  0.87267901  0.01891700  0.49056793    -0.72300
O607        O  0.85637235  0.00802508  0.45274003    -0.72300
O608        O  0.83049223  0.07833681  0.44549565    -0.72300
O609        O  0.87353278  0.05244074  0.43036680    -0.72300
O610        O  0.81191427  0.03388399  0.46712116    -0.72400
V611        V  0.86124240  0.05354070  0.48504555     1.35200
V612        V  0.84330527  0.04326462  0.44968352     1.35200
C613        C  0.80959160  0.03806814  0.49146706     0.77000
C614        C  0.89405616  0.05974691  0.44218112     0.77000
C615        C  0.83757884  0.09571827  0.46190961     0.76900
C616        C  0.87006165  0.00200043  0.47274181     0.76900
O617        O  0.98714939  0.83865731  0.49242612    -0.72200
O618        O  0.95021323  0.90284232  0.48217999    -0.72500
O619        O  0.97536170  0.88041526  0.52246938    -0.72300
O620        O  0.96278266  0.86204318  0.45197492    -0.72300
O621        O  0.92831624  0.83958100  0.46334659    -0.72300
O622        O  0.93712656  0.86521413  0.53368620    -0.72300
O623        O  0.91344160  0.88258857  0.48975651    -0.72300
O624        O  0.95143845  0.82080035  0.50722386    -0.72400
V625        V  0.96821458  0.87053426  0.48751623     1.35200
V626        V  0.93327503  0.85225874  0.49841734     1.35200
C627        C  0.97559221  0.81873948  0.50182178     0.77000
C628        C  0.92536995  0.90338059  0.48352225     0.77000
C629        C  0.95788083  0.87767060  0.53974052     0.76900
C630        C  0.94354467  0.84794558  0.44550374     0.76900
O631        O  0.03074376  0.20373860  0.53174389    -0.72200
O632        O  0.06958764  0.14064238  0.54354288    -0.72500
O633        O  0.05370073  0.18062587  0.57311578    -0.72300
O634        O  0.04571106  0.16260601  0.50198149    -0.72300
O635        O  0.08394338  0.17927983  0.49297505    -0.72300
O636        O  0.08787693  0.20442058  0.56370038    -0.72300
O637        O  0.10567073  0.16237725  0.53775395    -0.72300
O638        O  0.06667302  0.22250759  0.51886933    -0.72400
V639        V  0.05054554  0.17231537  0.53731255     1.35200
V640        V  0.08532428  0.19187583  0.52838721     1.35200
C641        C  0.04244868  0.22419911  0.52365534     0.77000
C642        C  0.09452748  0.14112409  0.54362666     0.77000
C643        C  0.07197609  0.19545245  0.58061299     0.76900
C644        C  0.06389322  0.16645418  0.48567900     0.76900
O645        O  0.19018329  0.00190007  0.52733802    -0.72200
O646        O  0.13000353  0.98489267  0.56869051    -0.72500
O647        O  0.14690297  0.02791573  0.54419702    -0.72300
O648        O  0.17190078  0.95896650  0.55111146    -0.72300
O649        O  0.19183265  0.96929679  0.58730178    -0.72300
O650        O  0.16861683  0.04008286  0.57895290    -0.72300
O651        O  0.15079205  0.99733114  0.60371454    -0.72300
O652        O  0.21116007  0.01174774  0.56323865    -0.72400
V653        V  0.16021387  0.99379520  0.54844778     1.35200
V654        V  0.18031867  0.00455367  0.58253173     1.35200
C655        C  0.21144793  0.00814061  0.53871863     0.77000
C656        C  0.13027730  0.98801958  0.59341055     0.77000
C657        C  0.15226550  0.04534635  0.56089073     0.76900
C658        C  0.18529960  0.95194538  0.57069570     0.76900
O659        O  0.99265890  0.00521761  0.69245118    -0.72200
O660        O  0.97934219  0.96406233  0.63093656    -0.72500
O661        O  0.95107843  0.98137301  0.67126579    -0.72300
O662        O  0.02143616  0.98879479  0.65078396    -0.72300
O663        O  0.03231102  0.95371835  0.67264074    -0.72300
O664        O  0.96046486  0.94558221  0.69251786    -0.72300
O665        O  0.99051071  0.92900819  0.65259282    -0.72300
O666        O  0.00219129  0.96979863  0.71396200    -0.72400
V667        V  0.98651394  0.98424407  0.66187191     1.35200
V668        V  0.99629149  0.95027882  0.68263905     1.35200
C669        C  0.99849623  0.99435190  0.71412755     0.77000
C670        C  0.98240836  0.93934907  0.63154670     0.77000
C671        C  0.94349462  0.96189868  0.68436256     0.76900
C672        C  0.03852074  0.97206205  0.65701714     0.76900
O673        O  0.73620140  0.59343912  0.78107507    -0.72200
O674        O  0.72074576  0.65470603  0.82167893    -0.72500
O675        O  0.76252642  0.63730510  0.79523315    -0.72300
O676        O  0.69443151  0.61201850  0.80670259    -0.72300
O677        O  0.70682148  0.59274560  0.84274096    -0.72300
O678        O  0.77689629  0.61698490  0.82989807    -0.72300
O679        O  0.73545087  0.63480959  0.85655515    -0.72300
O680        O  0.74857395  0.57366213  0.81681666    -0.72400
V681        V  0.72885124  0.62390380  0.80180954     1.35200
V682        V  0.74176367  0.60480660  0.83576070     1.35200
C683        C  0.74382677  0.57265445  0.79250784     0.77000
C684        C  0.72576309  0.65501691  0.84608754     0.77000
C685        C  0.78110605  0.63256827  0.81089000     0.76900
C686        C  0.68860646  0.59912284  0.82692731     0.76900
O687        O  0.94172547  0.75212344  0.78009227    -0.72200
O688        O  0.87740352  0.71658637  0.79416784    -0.72500
O689        O  0.91932679  0.73051186  0.82246005    -0.72300
O690        O  0.89889264  0.73881164  0.75180273    -0.72300
O691        O  0.91516189  0.70061000  0.74209043    -0.72300
O692        O  0.93931000  0.69421863  0.81290734    -0.72300
O693        O  0.89659656  0.67934757  0.78632913    -0.72300
O694        O  0.95941731  0.71508115  0.76875240    -0.72400
V695        V  0.90977981  0.73383943  0.78686237     1.35200
V696        V  0.92741300  0.69809080  0.77758050     1.35200
C697        C  0.96180677  0.73946093  0.77260824     0.77000
C698        C  0.87620447  0.69177312  0.79287862     0.77000
C699        C  0.93238912  0.71088257  0.83003229     0.76900
C700        C  0.90189223  0.72057153  0.73532440     0.76900
O701        O  0.57924007  0.79134195  0.73693227    -0.72200
O702        O  0.64377657  0.82789442  0.72577144    -0.72500
O703        O  0.62080702  0.80493401  0.76700892    -0.72300
O704        O  0.60320139  0.81349051  0.69553443    -0.72300
O705        O  0.58020428  0.84810794  0.70513130    -0.72300
O706        O  0.60579823  0.84394722  0.77565224    -0.72300
O707        O  0.62307307  0.86486675  0.73069449    -0.72300
O708        O  0.56161900  0.82771915  0.75007584    -0.72400
V709        V  0.61134409  0.81003900  0.73151632     1.35200
V710        V  0.59290437  0.84544737  0.74030870     1.35200
C711        C  0.55921571  0.80346612  0.74552607     0.77000
C712        C  0.64417264  0.85279142  0.72601510     0.77000
C713        C  0.61802944  0.82356100  0.78306860     0.76900
C714        C  0.58839430  0.83187919  0.68811788     0.76900
O715        O  0.74100609  0.79573387  0.94154659    -0.72200
O716        O  0.70352533  0.80904548  0.87769101    -0.72500
O717        O  0.71866873  0.83765811  0.91892424    -0.72300
O718        O  0.72674558  0.76694099  0.89942201    -0.72300
O719        O  0.69016425  0.75662814  0.91867662    -0.72300
O720        O  0.68190755  0.82849415  0.93828074    -0.72300
O721        O  0.66720861  0.79883711  0.89752331    -0.72300
O722        O  0.70429547  0.78618099  0.96072886    -0.72400
V723        V  0.72182408  0.80203843  0.90982590     1.35200
V724        V  0.68665798  0.79266631  0.92853806     1.35200
C725        C  0.72887333  0.78919402  0.96229212     0.77000
C726        C  0.67875330  0.80652004  0.87700229     0.77000
C727        C  0.69874880  0.84543402  0.93131781     0.76900
C728        C  0.70963297  0.74987290  0.90474373     0.76900
O729        O  0.77058190  0.74982295  0.58454822    -0.72200
O730        O  0.81295454  0.73274742  0.64448419    -0.72500
O731        O  0.78830724  0.77584363  0.62754824    -0.72300
O732        O  0.79437610  0.70679319  0.60264375    -0.72300
O733        O  0.82948957  0.71723546  0.58093055    -0.72300
O734        O  0.82329688  0.78758814  0.60630293    -0.72300
O735        O  0.84764378  0.74423858  0.62244322    -0.72300
O736        O  0.80580678  0.76082034  0.56340783    -0.72400
V737        V  0.79216968  0.74163372  0.61432792     1.35200
V738        V  0.82580540  0.75230885  0.59357121     1.35200
C739        C  0.78128992  0.75742764  0.56332269     0.77000
C740        C  0.83763120  0.73601917  0.64351839     0.77000
C741        C  0.80529889  0.79313301  0.62258646     0.76900
C742        C  0.81297852  0.69996251  0.58791181     0.76900
O743        O  0.78463208  0.95319019  0.74521338    -0.72200
O744        O  0.79811542  0.88907643  0.70883614    -0.72500
O745        O  0.82648169  0.93094554  0.72271182    -0.72300
O746        O  0.75640328  0.91038491  0.73207235    -0.72300
O747        O  0.74579753  0.92645524  0.69401686    -0.72300
O748        O  0.81614963  0.95177118  0.68703260    -0.72300
O749        O  0.79004259  0.90872613  0.67181256    -0.72300
O750        O  0.77190982  0.97071613  0.70849280    -0.72400
V751        V  0.79114692  0.92133887  0.72653691     1.35200
V752        V  0.78108553  0.93919276  0.69107094     1.35200
C753        C  0.77637235  0.97313361  0.73277374     0.77000
C754        C  0.79643049  0.88812599  0.68399163     0.77000
C755        C  0.83350864  0.94483145  0.70356299     0.76900
C756        C  0.73952058  0.91317513  0.71415505     0.76900
O757        O  0.24227577  0.79106048  0.58170254    -0.72200
O758        O  0.20474000  0.80878054  0.64431774    -0.72500
O759        O  0.22784325  0.76554515  0.62581884    -0.72300
O760        O  0.22019095  0.83424501  0.60119614    -0.72300
O761        O  0.18382625  0.82397858  0.58142649    -0.72300
O762        O  0.19071414  0.75413868  0.60817205    -0.72300
O763        O  0.16834568  0.79824670  0.62465047    -0.72300
O764        O  0.20560628  0.77936599  0.56351296    -0.72400
V765        V  0.22310499  0.79958751  0.61279961     1.35200
V766        V  0.18790045  0.78907030  0.59462999     1.35200
C767        C  0.23007215  0.78280389  0.56160111     0.77000
C768        C  0.17995685  0.80633618  0.64497911     0.77000
C769        C  0.20988196  0.74882305  0.62318850     0.76900
C770        C  0.20070301  0.84119492  0.58770283     0.76900
O771        O  0.23840546  0.59909060  0.75350836    -0.72200
O772        O  0.21774223  0.65679223  0.71095969    -0.72500
O773        O  0.19388679  0.61402629  0.72983908    -0.72300
O774        O  0.26196605  0.64287482  0.73488443    -0.72300
O775        O  0.27434814  0.62098103  0.70035946    -0.72300
O776        O  0.20500011  0.59300115  0.69455098    -0.72300
O777        O  0.22985071  0.63539157  0.67607164    -0.72300
O778        O  0.24944898  0.57758388  0.71845467    -0.72400
V779        V  0.22830044  0.62768983  0.73167208     1.35200
V780        V  0.23951578  0.60705764  0.69808636     1.35200
C781        C  0.24677984  0.57810048  0.74310099     0.77000
C782        C  0.22053326  0.65593795  0.68625423     0.77000
C783        C  0.18744605  0.59917940  0.71105055     0.76900
C784        C  0.27942792  0.63766998  0.71813302     0.76900
O785        O  0.27436832  0.75395167  0.94833541    -0.72200
O786        O  0.31196112  0.74117752  0.88464970    -0.72500
O787        O  0.29676684  0.71203779  0.92546120    -0.72300
O788        O  0.28865881  0.78284317  0.90634685    -0.72300
O789        O  0.32704453  0.79214180  0.92262188    -0.72300
O790        O  0.33166404  0.72156909  0.94812367    -0.72300
O791        O  0.34853512  0.74746667  0.90569142    -0.72300
O792        O  0.31070412  0.76646540  0.96671494    -0.72400
V793        V  0.29357235  0.74773073  0.91666317     1.35200
V794        V  0.32873970  0.75683137  0.93557412     1.35200
C795        C  0.28635480  0.76227063  0.96859306     0.77000
C796        C  0.33687970  0.74166476  0.88463048     0.77000
C797        C  0.31547268  0.70454143  0.93981052     0.76900
C798        C  0.30703571  0.79907131  0.90945553     0.76900
O799        O  0.43786862  0.76195004  0.74386457    -0.72200
O800        O  0.37511072  0.72386253  0.72847829    -0.72500
O801        O  0.39343518  0.74929313  0.77058399    -0.72300
O802        O  0.41859856  0.73699298  0.70218945    -0.72300
O803        O  0.43656001  0.70047566  0.71504879    -0.72300
O804        O  0.41203562  0.71355674  0.78448098    -0.72300
O805        O  0.39352664  0.68813265  0.74238459    -0.72300
O806        O  0.45636008  0.72567041  0.75654698    -0.72400
V807        V  0.40666418  0.74239069  0.73670079     1.35200
V808        V  0.42437674  0.70775046  0.74954264     1.35200
C809        C  0.45837024  0.74979815  0.75105617     0.77000
C810        C  0.37366016  0.69936970  0.73258387     0.77000
C811        C  0.39679601  0.73276620  0.78871198     0.76900
C812        C  0.43151220  0.71661819  0.69682692     0.76900
O813        O  0.08055619  0.78700862  0.78230276    -0.72200
O814        O  0.13997549  0.82956363  0.79990519    -0.72500
O815        O  0.09775119  0.81197443  0.82549437    -0.72300
O816        O  0.12387256  0.80392902  0.75660952    -0.72300
O817        O  0.10379261  0.83956353  0.74429296    -0.72300
O818        O  0.07558911  0.84623755  0.81341167    -0.72300
O819        O  0.11797961  0.86421780  0.78818114    -0.72300
O820        O  0.06018217  0.82192679  0.76919379    -0.72400
V821        V  0.11011036  0.80872066  0.79073511     1.35200
V822        V  0.08969755  0.84221653  0.77893800     1.35200
C823        C  0.05979925  0.79752333  0.77328127     0.77000
C824        C  0.13874463  0.85430185  0.79727952     0.77000
C825        C  0.08257575  0.83053659  0.83148432     0.76900
C826        C  0.11923026  0.82079682  0.73907202     0.76900
O827        O  0.27532354  0.95440915  0.78432029    -0.72200
O828        O  0.28845310  0.89135727  0.82326442    -0.72500
O829        O  0.24653502  0.91255965  0.79900691    -0.72300
O830        O  0.31713356  0.93221858  0.80757561    -0.72300
O831        O  0.30753801  0.95364198  0.84316631    -0.72300
O832        O  0.23628537  0.93112619  0.83609367    -0.72300
O833        O  0.27941206  0.91246308  0.85923003    -0.72300
O834        O  0.26415518  0.97375551  0.82049930    -0.72400
V835        V  0.28157961  0.92308035  0.80417932     1.35200
V836        V  0.27196459  0.94248266  0.83896430     1.35200
C837        C  0.26779977  0.97511187  0.79603969     0.77000
C838        C  0.28632370  0.89148542  0.84813099     0.77000
C839        C  0.22965042  0.91740537  0.81639557     0.76900
C840        C  0.32464434  0.94571269  0.82690871     0.76900
O841        O  0.07401249  0.74985420  0.28514118    -0.72200
O842        O  0.13684777  0.71072796  0.29547069    -0.72500
O843        O  0.11488941  0.73551317  0.25478913    -0.72300
O844        O  0.09678836  0.72563170  0.32600225    -0.72300
O845        O  0.07375656  0.69140807  0.31566177    -0.72300
O846        O  0.09729927  0.69792747  0.24470226    -0.72300
O847        O  0.11518653  0.67470297  0.28817027    -0.72300
O848        O  0.05451236  0.71427959  0.27212774    -0.72400
V849        V  0.10518478  0.72980157  0.29012048     1.35200
V850        V  0.08544596  0.69531903  0.28028084     1.35200
C851        C  0.05342111  0.73859594  0.27690041     0.77000
C852        C  0.13653444  0.68593139  0.29367645     0.77000
C853        C  0.11064493  0.71781826  0.23799271     0.76900
C854        C  0.08224770  0.70691254  0.33319765     0.76900
O855        O  0.27821505  0.58500028  0.27876487    -0.72200
O856        O  0.28777392  0.64957632  0.31565044    -0.72500
O857        O  0.31767215  0.60832667  0.30463255    -0.72300
O858        O  0.24829126  0.62745746  0.28920357    -0.72300
O859        O  0.23443661  0.60896971  0.32503538    -0.72300
O860        O  0.30506412  0.58988327  0.34099062    -0.72300
O861        O  0.27385734  0.63075478  0.35138220    -0.72300
O862        O  0.26535486  0.56656008  0.31494666    -0.72400
V863        V  0.28262060  0.61708530  0.29767760     1.35200
V864        V  0.26987861  0.59920854  0.33230578     1.35200
C865        C  0.27067914  0.56454255  0.29078153     0.77000
C866        C  0.28230499  0.65097850  0.33989424     0.77000
C867        C  0.32344887  0.59684436  0.32575070     0.76900
C868        C  0.22985928  0.62322497  0.30514649     0.76900
O869        O  0.23851638  0.75691931  0.08738346    -0.72200
O870        O  0.19716118  0.73840427  0.14736539    -0.72500
O871        O  0.21554620  0.71326541  0.10529039    -0.72300
O872        O  0.22095417  0.78254070  0.13043094    -0.72300
O873        O  0.18495482  0.79325580  0.11004762    -0.72300
O874        O  0.18027282  0.72334932  0.08363470    -0.72300
O875        O  0.16190345  0.74875781  0.12566975    -0.72300
O876        O  0.20294593  0.76781047  0.06676965    -0.72400
V877        V  0.21739906  0.74812620  0.11721402     1.35200
V878        V  0.18328407  0.75820734  0.09686195     1.35200
C879        C  0.22751003  0.76464770  0.06634591     0.77000
C880        C  0.17230196  0.73984823  0.14633840     0.77000
C881        C  0.19689355  0.70620828  0.09062024     0.76900
C882        C  0.20361364  0.79944435  0.12531248     0.76900
O883        O  0.26534131  0.79104621  0.43862573    -0.72200
O884        O  0.30131717  0.80552308  0.37448198    -0.72500
O885        O  0.27843263  0.76310218  0.39552270    -0.72300
O886        O  0.28738007  0.83344112  0.41651277    -0.72300
O887        O  0.32330386  0.82310972  0.43705494    -0.72300
O888        O  0.31666822  0.75302344  0.41160577    -0.72300
O889        O  0.33832379  0.79747648  0.39417141    -0.72300
O890        O  0.30221091  0.77863106  0.45598891    -0.72400
V891        V  0.28374882  0.79798898  0.40670786     1.35200
V892        V  0.31933918  0.78814249  0.42447071     1.35200
C893        C  0.27787141  0.78259040  0.45844360     0.77000
C894        C  0.32617673  0.80447128  0.37376479     0.77000
C895        C  0.29653839  0.74648196  0.39847887     0.76900
C896        C  0.30692755  0.84046489  0.42997938     0.76900
O897        O  0.43155857  0.78889143  0.23756180    -0.72200
O898        O  0.36863566  0.82736804  0.22383716    -0.72500
O899        O  0.41067654  0.81325635  0.19603575    -0.72300
O900        O  0.38824612  0.80230504  0.26517364    -0.72300
O901        O  0.40515428  0.83951398  0.27735567    -0.72300
O902        O  0.43235365  0.84806137  0.20790214    -0.72300
O903        O  0.38921509  0.86343487  0.23354638    -0.72300
O904        O  0.44986394  0.82453341  0.25187513    -0.72400
V905        V  0.40028702  0.80857039  0.23097455     1.35200
V906        V  0.41894107  0.84313308  0.24256573     1.35200
C907        C  0.45171954  0.80033182  0.24668635     0.77000
C908        C  0.36849341  0.85217507  0.22600199     0.77000
C909        C  0.42473524  0.83258185  0.18994003     0.76900
C910        C  0.39069792  0.81988216  0.28239447     0.76900
O911        O  0.23207202  0.95608068  0.24777303    -0.72200
O912        O  0.21295658  0.89602233  0.20723615    -0.72500
O913        O  0.25589306  0.91097292  0.23301517    -0.72300
O914        O  0.18887191  0.94028217  0.22260730    -0.72300
O915        O  0.20203133  0.95891254  0.18652234    -0.72300
O916        O  0.27053812  0.93066740  0.19816993    -0.72300
O917        O  0.22792937  0.91541753  0.17229478    -0.72300
O918        O  0.24521175  0.97550262  0.21223876    -0.72400
V919        V  0.22277572  0.92632159  0.22703715     1.35200
V920        V  0.23620391  0.94492098  0.19307336     1.35200
C921        C  0.24129820  0.97637294  0.23673535     0.77000
C922        C  0.21811726  0.89533212  0.18288172     0.77000
C923        C  0.27410471  0.91430840  0.21662621     0.76900
C924        C  0.18371274  0.95389554  0.20260567     0.76900
O925        O  0.57634466  0.25909309  0.77779628    -0.72200
O926        O  0.63780495  0.21983004  0.79390127    -0.72500
O927        O  0.61790247  0.24083338  0.75041389    -0.72300
O928        O  0.59723375  0.23843693  0.82149257    -0.72300
O929        O  0.57445461  0.20326509  0.81388307    -0.72300
O930        O  0.59896165  0.20326106  0.74308794    -0.72300
O931        O  0.61601317  0.18360100  0.78842407    -0.72300
O932        O  0.55596464  0.22293192  0.76837707    -0.72400
V933        V  0.60681295  0.23889786  0.78570187     1.35200
V934        V  0.58656930  0.20403283  0.77851290     1.35200
C935        C  0.55546171  0.24767908  0.77059424     0.77000
C936        C  0.63741586  0.19498706  0.79354930     0.77000
C937        C  0.61357634  0.22176450  0.73523123     0.76900
C938        C  0.58261851  0.22037233  0.83001243     0.76900
O939        O  0.73995722  0.45305612  0.74720843    -0.72200
O940        O  0.73021256  0.38944857  0.70909590    -0.72500
O941        O  0.77149397  0.41457345  0.72975659    -0.72300
O942        O  0.69855408  0.42725262  0.72714785    -0.72300
O943        O  0.70391553  0.45123733  0.69223985    -0.72300
O944        O  0.77641654  0.43257346  0.69131377    -0.72300
O945        O  0.73227547  0.41135670  0.67265009    -0.72300
O946        O  0.74806399  0.47336334  0.71068199    -0.72400
V947        V  0.73520713  0.42153845  0.72765212     1.35200
V948        V  0.74011171  0.44183564  0.69243389     1.35200
C949        C  0.74574268  0.47419208  0.73537910     0.77000
C950        C  0.72909779  0.38967462  0.68419396     0.77000
C951        C  0.78607944  0.42007470  0.71052966     0.76900
C952        C  0.68879082  0.44163879  0.70950452     0.76900
O953        O  0.74697210  0.24969749  0.58631379    -0.72200
O954        O  0.70435146  0.23048163  0.64552421    -0.72500
O955        O  0.72058842  0.20680335  0.60145076    -0.72300
O956        O  0.73141851  0.27344201  0.63163916    -0.72300
O957        O  0.69728041  0.28872057  0.61104670    -0.72300
O958        O  0.68555225  0.22085422  0.58166333    -0.72300
O959        O  0.67033624  0.24598211  0.62506983    -0.72300
O960        O  0.71185693  0.26373801  0.56656194    -0.72400
V961        V  0.72527141  0.24050432  0.61581280     1.35200
V962        V  0.69202716  0.25463347  0.59643532     1.35200
C963        C  0.73606687  0.25873876  0.56574262     0.77000
C964        C  0.67982580  0.23496328  0.64513251     0.77000
C965        C  0.70110569  0.20214230  0.58693399     0.76900
C966        C  0.71574674  0.29212918  0.62740754     0.76900
O967        O  0.77745724  0.09348900  0.77549422    -0.72200
O968        O  0.79008898  0.15694770  0.81297073    -0.72500
O969        O  0.81853130  0.11504774  0.79972823    -0.72300
O970        O  0.74891184  0.13634109  0.78819714    -0.72300
O971        O  0.73666356  0.11853359  0.82496546    -0.72300
O972        O  0.80706025  0.09520918  0.83560044    -0.72300
O973        O  0.77916986  0.13746609  0.84927922    -0.72300
O974        O  0.76470864  0.07500815  0.81161290    -0.72400
V975        V  0.78339664  0.12500190  0.79474511     1.35200
V976        V  0.77201123  0.10678219  0.82960503     1.35200
C977        C  0.76983274  0.07301656  0.78743025     0.77000
C978        C  0.78692025  0.15791721  0.83763091     0.77000
C979        C  0.82494494  0.10185362  0.81966668     0.76900
C980        C  0.73131464  0.13272867  0.80521918     0.76900
O981        O  0.93349035  0.29020275  0.74252620    -0.72200
O982        O  0.87733467  0.33550832  0.72203688    -0.72500
O983        O  0.92052772  0.31666108  0.69918682    -0.72300
O984        O  0.88895645  0.30855030  0.76561998    -0.72300
O985        O  0.91062553  0.34194847  0.78081951    -0.72300
O986        O  0.94225839  0.35050417  0.71301503    -0.72300
O987        O  0.89920377  0.36886743  0.73712049    -0.72300
O988        O  0.95503057  0.32394578  0.75682977    -0.72400
V989        V  0.90554520  0.31331457  0.73279085     1.35200
V990        V  0.92645735  0.34558857  0.74679664     1.35200
C991        C  0.95453486  0.29961831  0.75193373     0.77000
C992        C  0.87893602  0.36003093  0.72592656     0.77000
C993        C  0.93621365  0.33516745  0.69431360     0.76900
C994        C  0.89307384  0.32455365  0.78407975     0.76900
O995        O  0.76835761  0.29347720  0.94105651    -0.72200
O996        O  0.80656259  0.31261919  0.87921566    -0.72500
O997        O  0.78311561  0.26900022  0.89613927    -0.72300
O998        O  0.79105212  0.33711735  0.92305259    -0.72300
O999        O  0.82743372  0.32596939  0.94229676    -0.72300
O1000       O  0.81960316  0.25674422  0.91464426    -0.72300
O1001       O  0.84276881  0.30117075  0.89862269    -0.72300
O1002       O  0.80483687  0.28155814  0.95944044    -0.72400
V1003       V  0.78791428  0.30271315  0.91031520     1.35200
V1004       V  0.82288914  0.29147174  0.92848898     1.35200
C1005       C  0.78041804  0.28520401  0.96129247     0.77000
C1006       C  0.83138320  0.31036993  0.87860679     0.77000
C1007       C  0.80041267  0.25166624  0.89959765     0.76900
C1008       C  0.81083817  0.34355191  0.93636124     0.76900
O1009       O  0.27770864  0.09504699  0.75406255    -0.72200
O1010       O  0.29295338  0.15908119  0.71815803    -0.72500
O1011       O  0.25011096  0.13834314  0.73981575    -0.72300
O1012       O  0.32065822  0.11729547  0.73278644    -0.72300
O1013       O  0.31098964  0.09618237  0.69690260    -0.72300
O1014       O  0.24090990  0.12240124  0.70133966    -0.72300
O1015       O  0.28595565  0.13924606  0.68103580    -0.72300
O1016       O  0.26584021  0.07767606  0.71697644    -0.72400
V1017       V  0.28504984  0.12693276  0.73562537     1.35200
V1018       V  0.27597295  0.10905751  0.69987252     1.35200
C1019       C  0.26976645  0.07513429  0.74132867     0.77000
C1020       C  0.29271810  0.15966123  0.69324817     0.77000
C1021       C  0.23431620  0.13645269  0.72081312     0.76900
C1022       C  0.32803079  0.10392284  0.71333477     0.76900
O1023       O  0.07384038  0.25696732  0.74138621    -0.72200
O1024       O  0.13744285  0.22099234  0.72520667    -0.72500
O1025       O  0.09477137  0.23548909  0.69807799    -0.72300
O1026       O  0.11729647  0.24296626  0.76827880    -0.72300
O1027       O  0.10144015  0.20452439  0.77789839    -0.72300
O1028       O  0.07447285  0.19937046  0.70815791    -0.72300
O1029       O  0.11797956  0.18377766  0.73268895    -0.72300
O1030       O  0.05630371  0.21998971  0.75327990    -0.72400
V1031       V  0.10538403  0.23844405  0.73347045     1.35200
V1032       V  0.08773499  0.20271306  0.74294118     1.35200
C1033       C  0.05409808  0.24449828  0.74993817     0.77000
C1034       C  0.13833922  0.19613254  0.72595015     0.77000
C1035       C  0.08125174  0.21602872  0.69096582     0.76900
C1036       C  0.11485581  0.22441805  0.78449576     0.76900
O1037       O  0.27019042  0.29268568  0.58902096    -0.72200
O1038       O  0.31037737  0.31549698  0.64844400    -0.72500
O1039       O  0.29324971  0.33749697  0.60389746    -0.72300
O1040       O  0.28659783  0.27085208  0.63481340    -0.72300
O1041       O  0.32305471  0.25819391  0.61666985    -0.72300
O1042       O  0.32829526  0.32483883  0.58331249    -0.72300
O1043       O  0.34581942  0.30377588  0.62793004    -0.72300
O1044       O  0.30605902  0.27889485  0.57083052    -0.72400
V1045       V  0.29067019  0.30377322  0.61860034     1.35200
V1046       V  0.32501830  0.29158622  0.59996605     1.35200
C1047       C  0.28170180  0.28270717  0.56926178     0.77000
C1048       C  0.33520449  0.31349145  0.64805551     0.77000
C1049       C  0.31206257  0.34287384  0.58885272     0.76900
C1050       C  0.30441906  0.25386638  0.63253741     0.76900
O1051       O  0.43622314  0.29526474  0.78093011    -0.72200
O1052       O  0.37768208  0.33808324  0.79978242    -0.72500
O1053       O  0.39351233  0.31421774  0.75584690    -0.72300
O1054       O  0.41940922  0.31858800  0.82494700    -0.72300
O1055       O  0.44154948  0.35353698  0.81499439    -0.72300
O1056       O  0.41520984  0.34932953  0.74484647    -0.72300
O1057       O  0.39998314  0.37280396  0.78904176    -0.72300
O1058       O  0.45798015  0.33023819  0.77040060    -0.72400
V1059       V  0.40720103  0.31717514  0.79008566     1.35200
V1060       V  0.42838738  0.35073208  0.77996323     1.35200
C1061       C  0.45742439  0.30554740  0.77296720     0.77000
C1062       C  0.37891404  0.36281973  0.79732908     0.77000
C1063       C  0.39900831  0.33141781  0.73896428     0.76900
C1064       C  0.43429125  0.33700717  0.83213111     0.76900
O1065       O  0.24098767  0.46069683  0.78810490    -0.72200
O1066       O  0.22602151  0.39702701  0.82410682    -0.72500
O1067       O  0.19842904  0.43932139  0.81028630    -0.72300
O1068       O  0.26865615  0.41775536  0.80142271    -0.72300
O1069       O  0.27924797  0.43531645  0.83894426    -0.72300
O1070       O  0.20838471  0.45795126  0.84726020    -0.72300
O1071       O  0.23598623  0.41555778  0.86116235    -0.72300
O1072       O  0.25145321  0.47883387  0.82533940    -0.72400
V1073       V  0.23380609  0.42909579  0.80668122     1.35200
V1074       V  0.24369190  0.44667243  0.84239956     1.35200
C1075       C  0.24792974  0.48087313  0.80084502     0.77000
C1076       C  0.22805892  0.39556350  0.84889793     0.77000
C1077       C  0.19115057  0.45188261  0.83037283     0.76900
C1078       C  0.28563320  0.42193720  0.81896687     0.76900
O1079       O  0.24486227  0.25116424  0.93723083    -0.72200
O1080       O  0.20378632  0.23661086  0.87565538    -0.72500
O1081       O  0.22853870  0.27885707  0.89472720    -0.72300
O1082       O  0.22108243  0.20893311  0.91688746    -0.72300
O1083       O  0.18552288  0.21902598  0.93813373    -0.72300
O1084       O  0.19328279  0.29021755  0.91590916    -0.72300
O1085       O  0.16877892  0.24780654  0.89729196    -0.72300
O1086       O  0.20915914  0.26158321  0.95774927    -0.72400
V1087       V  0.22396064  0.24420320  0.90658196     1.35200
V1088       V  0.18993249  0.25448543  0.92692482     1.35200
C1089       C  0.23359933  0.25807586  0.95843181     0.77000
C1090       C  0.17911196  0.24012177  0.87618334     0.77000
C1091       C  0.21177231  0.29612729  0.90035526     0.76900
C1092       C  0.20209644  0.20187407  0.93100735     0.76900
O1093       O  0.27648130  0.24721224  0.07831060    -0.72200
O1094       O  0.31286128  0.23307111  0.14266482    -0.72500
O1095       O  0.29045838  0.27526623  0.12106426    -0.72300
O1096       O  0.29765146  0.20485427  0.10087119    -0.72300
O1097       O  0.33346002  0.21397759  0.07976251    -0.72300
O1098       O  0.32885484  0.28458832  0.10501980    -0.72300
O1099       O  0.34970301  0.24002006  0.12255533    -0.72300
O1100       O  0.31342996  0.25879781  0.06063353    -0.72400
V1101       V  0.29502679  0.24034826  0.11031359     1.35200
V1102       V  0.33060952  0.24925334  0.09222182     1.35200
C1103       C  0.28910823  0.25487492  0.05821068     0.77000
C1104       C  0.33779009  0.23390172  0.14332128     0.77000
C1105       C  0.30892194  0.29144180  0.11828849     0.76900
C1106       C  0.31642489  0.19720775  0.08676261     0.76900
O1107       O  0.28149802  0.44157147  0.25050694    -0.72200
O1108       O  0.29679760  0.38078749  0.20883943    -0.72500
O1109       O  0.32313730  0.42335541  0.22425515    -0.72300
O1110       O  0.25498235  0.39771463  0.23578062    -0.72300
O1111       O  0.24070629  0.41794978  0.20100728    -0.72300
O1112       O  0.31001952  0.44379240  0.18928193    -0.72300
O1113       O  0.28258085  0.40165822  0.17437089    -0.72300
O1114       O  0.26787891  0.46143274  0.21539739    -0.72400
V1115       V  0.28870859  0.41131764  0.22927479     1.35200
V1116       V  0.27549593  0.43092639  0.19578507     1.35200
C1117       C  0.27291769  0.46232828  0.23967774     0.77000
C1118       C  0.29206125  0.38111950  0.18435851     0.77000
C1119       C  0.32857784  0.43727942  0.20455154     0.76900
C1120       C  0.23666896  0.40197638  0.21966761     0.76900
O1121       O  0.23747383  0.09662786  0.28183352    -0.72200
O1122       O  0.22121329  0.15632435  0.32436490    -0.72500
O1123       O  0.26401621  0.13920887  0.29941807    -0.72300
O1124       O  0.19471257  0.11511712  0.30598838    -0.72300
O1125       O  0.20499219  0.09314536  0.34114096    -0.72300
O1126       O  0.27585092  0.11742159  0.33422038    -0.72300
O1127       O  0.23279239  0.13415764  0.35898870    -0.72300
O1128       O  0.24834652  0.07523517  0.31704137    -0.72400
V1129       V  0.22969029  0.12630605  0.30351031     1.35200
V1130       V  0.24034319  0.10530181  0.33710857     1.35200
C1131       C  0.24493784  0.07536811  0.29247678     0.77000
C1132       C  0.22453734  0.15524609  0.34905009     0.77000
C1133       C  0.28136706  0.13368880  0.31617893     0.76900
C1134       C  0.18769579  0.10093749  0.32493811     0.76900
O1135       O  0.43721189  0.25602733  0.28218704    -0.72200
O1136       O  0.37799219  0.21521987  0.30227088    -0.72500
O1137       O  0.42199459  0.23121453  0.32585567    -0.72300
O1138       O  0.39211041  0.24021101  0.25852008    -0.72300
O1139       O  0.41250594  0.20551265  0.24442072    -0.72300
O1140       O  0.44083292  0.19520299  0.31300691    -0.72300
O1141       O  0.39722152  0.18008936  0.28785447    -0.72300
O1142       O  0.45709037  0.22058800  0.26964621    -0.72400
V1143       V  0.40778760  0.23504917  0.29182196     1.35200
V1144       V  0.42665151  0.20110153  0.27887433     1.35200
C1145       C  0.45778381  0.24512935  0.27350142     0.77000
C1146       C  0.37749362  0.19063211  0.29852273     0.77000
C1147       C  0.43576992  0.21136562  0.33122866     0.76900
C1148       C  0.39612860  0.22379802  0.24039724     0.76900
O1149       O  0.07739082  0.28074727  0.24402010    -0.72200
O1150       O  0.13986055  0.31940136  0.23031985    -0.72500
O1151       O  0.12076896  0.29392060  0.27178242    -0.72300
O1152       O  0.09757201  0.30606544  0.20249902    -0.72300
O1153       O  0.07693294  0.34098726  0.21523341    -0.72300
O1154       O  0.10328220  0.33058525  0.28453539    -0.72300
O1155       O  0.11990002  0.35535749  0.24149449    -0.72300
O1156       O  0.05890950  0.31628357  0.25833501    -0.72400
V1157       V  0.10840727  0.30063108  0.23749642     1.35200
V1158       V  0.08994768  0.33501895  0.24976796     1.35200
C1159       C  0.05716447  0.29213388  0.25297996     0.77000
C1160       C  0.14031758  0.34410635  0.23316509     0.77000
C1161       C  0.11803258  0.31113208  0.28936185     0.76900
C1162       C  0.08399360  0.32596606  0.19673495     0.76900
O1163       O  0.23782888  0.29154438  0.45114592    -0.72200
O1164       O  0.20216732  0.30449149  0.38651740    -0.72500
O1165       O  0.21619875  0.33370248  0.42778348    -0.72300
O1166       O  0.22449261  0.26277462  0.40905882    -0.72300
O1167       O  0.18555897  0.25390902  0.42414564    -0.72300
O1168       O  0.18075448  0.32426412  0.44956294    -0.72300
O1169       O  0.16494808  0.29876387  0.40654526    -0.72300
O1170       O  0.20102911  0.27908962  0.46846389    -0.72400
V1171       V  0.21953859  0.29795418  0.41908478     1.35200
V1172       V  0.18382498  0.28910690  0.43699170     1.35200
C1173       C  0.22540022  0.28277806  0.47088242     0.77000
C1174       C  0.17728492  0.30423142  0.38579922     0.77000
C1175       C  0.19692894  0.34126083  0.44129465     0.76900
C1176       C  0.20587701  0.24673474  0.41171981     0.76900
O1177       O  0.73695801  0.29069166  0.08134462    -0.72200
O1178       O  0.69959273  0.30664733  0.14449613    -0.72500
O1179       O  0.72298807  0.26387578  0.12492057    -0.72300
O1180       O  0.71454077  0.33328436  0.10203093    -0.72300
O1181       O  0.67805582  0.32325861  0.08254485    -0.72300
O1182       O  0.68604480  0.25239169  0.10703147    -0.72300
O1183       O  0.66318465  0.29598167  0.12495265    -0.72300
O1184       O  0.70031430  0.27939152  0.06290811    -0.72400
V1185       V  0.71785392  0.29826791  0.11274360     1.35200
V1186       V  0.68267418  0.28785859  0.09454325     1.35200
C1187       C  0.72469314  0.28321822  0.06093213     0.77000
C1188       C  0.67481427  0.30424820  0.14520252     0.77000
C1189       C  0.70538661  0.24682622  0.12180135     0.76900
C1190       C  0.69476445  0.34057739  0.08910835     0.76900
O1191       O  0.57820483  0.28676026  0.28390151    -0.72200
O1192       O  0.64132343  0.32380402  0.29990682    -0.72500
O1193       O  0.59951009  0.30792440  0.32724677    -0.72300
O1194       O  0.62066696  0.30203822  0.25651155    -0.72300
O1195       O  0.60372066  0.34026749  0.24781797    -0.72300
O1196       O  0.57827978  0.34364817  0.31814318    -0.72300
O1197       O  0.62095852  0.36067316  0.29325704    -0.72300
O1198       O  0.55974956  0.32350924  0.27285413    -0.72400
V1199       V  0.60951415  0.30579896  0.29164700     1.35200
V1200       V  0.59093952  0.34126502  0.28308006     1.35200
C1201       C  0.55808287  0.29889534  0.27570669     0.77000
C1202       C  0.64155548  0.34870222  0.30005899     0.77000
C1203       C  0.58559614  0.32688626  0.33499869     0.76900
C1204       C  0.61680454  0.32046347  0.24042684     0.76900
O1205       O  0.73264925  0.08978660  0.24553922    -0.72200
O1206       O  0.71781016  0.15109553  0.20561528    -0.72500
O1207       O  0.69066401  0.10907160  0.22073735    -0.72300
O1208       O  0.75977947  0.13252520  0.23097042    -0.72300
O1209       O  0.77208048  0.11452508  0.19437580    -0.72300
O1210       O  0.70264590  0.08708842  0.18634194    -0.72300
O1211       O  0.72778777  0.13020492  0.16978024    -0.72300
O1212       O  0.74674679  0.07048999  0.21035619    -0.72400
V1213       V  0.72554003  0.12017401  0.22503390     1.35200
V1214       V  0.73718030  0.10086711  0.19088356     1.35200
C1215       C  0.74209663  0.06950601  0.23476190     0.77000
C1216       C  0.71970543  0.15089799  0.18079329     0.77000
C1217       C  0.68460256  0.09418938  0.20198820     0.76900
C1218       C  0.77754420  0.12865440  0.21417394     0.76900
O1219       O  0.93925260  0.24579841  0.24389050    -0.72200
O1220       O  0.87571924  0.20898655  0.23064315    -0.72500
O1221       O  0.89661334  0.23328557  0.27227204    -0.72300
O1222       O  0.91804091  0.22200904  0.20227841    -0.72300
O1223       O  0.93924825  0.18702109  0.21395322    -0.72300
O1224       O  0.91236018  0.19522050  0.28353285    -0.72300
O1225       O  0.89539911  0.17209491  0.23921544    -0.72300
O1226       O  0.95697606  0.20980393  0.25811486    -0.72400
V1227       V  0.90777224  0.22681069  0.23752299     1.35200
V1228       V  0.92570829  0.19171933  0.24858552     1.35200
C1229       C  0.95918004  0.23398501  0.25295899     0.77000
C1230       C  0.87485327  0.18421777  0.23241729     0.77000
C1231       C  0.89987060  0.21587103  0.28957446     0.76900
C1232       C  0.93270556  0.20302243  0.19605319     0.76900
O1233       O  0.77965280  0.25708285  0.44562261    -0.72200
O1234       O  0.81808177  0.23566061  0.38508887    -0.72500
O1235       O  0.80204334  0.21271878  0.42933018    -0.72300
O1236       O  0.79514802  0.28017222  0.40020889    -0.72300
O1237       O  0.83072760  0.29312038  0.41990529    -0.72300
O1238       O  0.83900503  0.22375869  0.44728228    -0.72300
O1239       O  0.85404173  0.24912943  0.40369097    -0.72300
O1240       O  0.81601919  0.26774788  0.46498876    -0.72400
V1241       V  0.79936337  0.24682442  0.41552416     1.35200
V1242       V  0.83419168  0.25834965  0.43373997     1.35200
C1243       C  0.79146750  0.26455285  0.46628952     0.77000
C1244       C  0.84273078  0.23878055  0.38417432     0.77000
C1245       C  0.82204184  0.20621891  0.44239109     0.76900
C1246       C  0.81240515  0.29756000  0.40360002     0.76900
O1247       O  0.77611341  0.45315160  0.27998275    -0.72200
O1248       O  0.79685930  0.39127387  0.31713114    -0.72500
O1249       O  0.75226556  0.40802700  0.29511580    -0.72300
O1250       O  0.82055468  0.43495369  0.30107878    -0.72300
O1251       O  0.81037934  0.45450302  0.33755253    -0.72300
O1252       O  0.74134946  0.42501647  0.33265643    -0.72300
O1253       O  0.78719980  0.41063891  0.35385911    -0.72300
O1254       O  0.76449215  0.47081890  0.31690353    -0.72400
V1255       V  0.78606366  0.42230267  0.29896697     1.35200
V1256       V  0.77588182  0.44005258  0.33444041     1.35200
C1257       C  0.76786501  0.47310390  0.29245950     0.77000
C1258       C  0.79616132  0.39084798  0.34207075     0.77000
C1259       C  0.73590358  0.40993183  0.31353619     0.76900
C1260       C  0.82756560  0.44846528  0.32055536     0.76900
O1261       O  0.76793652  0.79657839  0.08501683    -0.72200
O1262       O  0.80662058  0.81070237  0.14772071    -0.72500
O1263       O  0.79272494  0.83826510  0.10501235    -0.72300
O1264       O  0.78128944  0.76900402  0.12851046    -0.72300
O1265       O  0.81840080  0.75675450  0.11143791    -0.72300
O1266       O  0.82753855  0.82570567  0.08404701    -0.72300
O1267       O  0.84266794  0.80028378  0.12751889    -0.72300
O1268       O  0.80360577  0.78219122  0.06680359    -0.72400
V1269       V  0.78777986  0.80334027  0.11616228     1.35200
V1270       V  0.82229456  0.79138223  0.09771994     1.35200
C1271       C  0.77941342  0.78745611  0.06490851     0.77000
C1272       C  0.83133423  0.80781827  0.14821505     0.77000
C1273       C  0.81192793  0.84393597  0.09044572     0.76900
C1274       C  0.79841805  0.75142405  0.12523892     0.76900
O1275       O  0.73542504  0.94944039  0.27708036    -0.72200
O1276       O  0.72109950  0.88647418  0.31502919    -0.72500
O1277       O  0.69288061  0.92811696  0.29940599    -0.72300
O1278       O  0.76340261  0.90723996  0.29217114    -0.72300
O1279       O  0.77283677  0.92459253  0.33003261    -0.72300
O1280       O  0.70252208  0.94976081  0.33477632    -0.72300
O1281       O  0.72826946  0.90724823  0.35165845    -0.72300
O1282       O  0.74710510  0.96821467  0.31355142    -0.72400
V1283       V  0.72840732  0.91825160  0.29658261     1.35200
V1284       V  0.73758823  0.93718459  0.33175064     1.35200
C1285       C  0.74362524  0.96968406  0.28899364     0.77000
C1286       C  0.72217456  0.88631363  0.33992179     0.77000
C1287       C  0.68544959  0.94240801  0.31824031     0.76900
C1288       C  0.77976824  0.91096700  0.31040381     0.76900
O1289       O  0.93266888  0.78309518  0.28655142    -0.72200
O1290       O  0.87268624  0.82524030  0.30196654    -0.72500
O1291       O  0.88985231  0.79962178  0.25973767    -0.72300
O1292       O  0.91441061  0.80813267  0.32891086    -0.72300
O1293       O  0.93540537  0.84342837  0.31756317    -0.72300
O1294       O  0.91129338  0.83416066  0.24694045    -0.72300
O1295       O  0.89420023  0.85979485  0.28905561    -0.72300
O1296       O  0.95381362  0.81811906  0.27499210    -0.72400
V1297       V  0.90292073  0.80462969  0.29396139     1.35200
V1298       V  0.92343329  0.83812110  0.28233853     1.35200
C1299       C  0.95383572  0.79362378  0.27883888     0.77000
C1300       C  0.87329889  0.84970785  0.29756426     0.77000
C1301       C  0.89493024  0.81607464  0.24193849     0.76900
C1302       C  0.92846166  0.82739730  0.33535331     0.76900
O1303       O  0.77641749  0.59341382  0.24955173    -0.72200
O1304       O  0.79159503  0.65651243  0.21150640    -0.72500
O1305       O  0.74977049  0.63760505  0.23684853    -0.72300
O1306       O  0.81838349  0.61356550  0.22509543    -0.72300
O1307       O  0.80647266  0.59519768  0.18848689    -0.72300
O1308       O  0.73619490  0.61894430  0.20100515    -0.72300
O1309       O  0.77785201  0.63754157  0.17575239    -0.72300
O1310       O  0.76413602  0.57510095  0.21315114    -0.72400
V1311       V  0.78370834  0.62479924  0.23011863     1.35200
V1312       V  0.77136825  0.60688022  0.19537890     1.35200
C1313       C  0.76836948  0.57310450  0.23747664     0.77000
C1314       C  0.78690051  0.65759333  0.18703595     0.77000
C1315       C  0.73157719  0.63381978  0.22047291     0.76900
C1316       C  0.82456563  0.60125960  0.20456949     0.76900
O1317       O  0.73784351  0.74774255  0.44296586    -0.72200
O1318       O  0.69827106  0.73285179  0.38047298    -0.72500
O1319       O  0.72417246  0.77456424  0.39901176    -0.72300
O1320       O  0.71289531  0.70594857  0.42326627    -0.72300
O1321       O  0.67702774  0.71789048  0.44270345    -0.72300
O1322       O  0.68865875  0.78812969  0.41810901    -0.72300
O1323       O  0.66305987  0.74616821  0.40047785    -0.72300
O1324       O  0.70180747  0.76017210  0.46205828    -0.72400
V1325       V  0.71766941  0.74062944  0.41188141     1.35200
V1326       V  0.68341626  0.75293872  0.43059091     1.35200
C1327       C  0.72603732  0.75535411  0.46357302     0.77000
C1328       C  0.67372393  0.73720467  0.38004999     0.77000
C1329       C  0.70784804  0.79274787  0.40287212     0.76900
C1330       C  0.69302168  0.69977867  0.43659747     0.76900
O1331       O  0.57471824  0.76113441  0.23976166    -0.72200
O1332       O  0.63869767  0.72269423  0.23103575    -0.72500
O1333       O  0.60003537  0.73877392  0.19911602    -0.72300
O1334       O  0.61452636  0.74577682  0.27140930    -0.72300
O1335       O  0.59805544  0.70708084  0.27869490    -0.72300
O1336       O  0.57565924  0.70469545  0.20710030    -0.72300
O1337       O  0.61660627  0.68637586  0.23444326    -0.72300
O1338       O  0.55556809  0.72498535  0.25150627    -0.72400
V1339       V  0.60652668  0.74151416  0.23549636     1.35200
V1340       V  0.58668315  0.70653605  0.24287576     1.35200
C1341       C  0.55408036  0.74940063  0.24731828     0.77000
C1342       C  0.63829011  0.69777872  0.23101979     0.77000
C1343       C  0.58555980  0.72057998  0.19068427     0.76900
C1344       C  0.61079535  0.72683093  0.28688580     0.76900
C1345       C  0.63743650  0.75165838  0.35125936    -0.09600
C1346       C  0.65728161  0.73315305  0.35645765     0.06600
C1347       C  0.65976206  0.71110864  0.33989581    -0.03400
C1348       C  0.64272093  0.70817834  0.31840394    -0.07800
C1349       C  0.62360192  0.72727260  0.31276655     0.05700
C1350       C  0.62096939  0.74908458  0.32945611    -0.02900
Br1351     Br  0.59527149  0.77595532  0.32310852    -0.02600
H1352       H  0.63511183  0.76861623  0.36390443     0.09600
H1353       H  0.64529532  0.69162721  0.30527616     0.07600
Br1354     Br  0.68560198  0.68434368  0.34588252    -0.03000
C1355       C  0.70776514  0.67233294  0.23806746    -0.09600
C1356       C  0.70678989  0.64884796  0.22342741     0.06600
C1357       C  0.68291825  0.64169455  0.21130557    -0.03400
C1358       C  0.66097224  0.65817069  0.21364774    -0.07800
C1359       C  0.66231066  0.68190036  0.22777291     0.05700
C1360       C  0.68593533  0.68871906  0.24037183    -0.02900
Br1361     Br  0.68919895  0.71905843  0.26260215    -0.02600
H1362       H  0.72579418  0.67827385  0.24772008     0.09600
H1363       H  0.64267541  0.65235696  0.20442030     0.07600
Br1364     Br  0.67853921  0.60928280  0.19255970    -0.03000
C1365       C  0.81724798  0.89593040  0.28377136    -0.09600
C1366       C  0.80565822  0.89823952  0.30867720     0.06600
C1367       C  0.81690940  0.88479072  0.33021251    -0.03400
C1368       C  0.83892677  0.86878709  0.32629507    -0.07800
C1369       C  0.85011580  0.86629771  0.30128439     0.05700
C1370       C  0.83938516  0.88029873  0.27998214    -0.02900
Br1371     Br  0.85303582  0.87725862  0.24492702    -0.02600
H1372       H  0.80858379  0.90579427  0.26697612     0.09600
H1373       H  0.84727452  0.85816273  0.34277627     0.07600
Br1374     Br  0.80190941  0.88563698  0.36480136    -0.03000
C1375       C  0.70117470  0.86330660  0.37758427    -0.09600
C1376       C  0.71734333  0.86225661  0.35522954     0.06600
C1377       C  0.73040581  0.83875906  0.34915910    -0.03400
C1378       C  0.72717879  0.81687647  0.36530731    -0.07800
C1379       C  0.71087205  0.81756519  0.38771483     0.05700
C1380       C  0.69756890  0.84117720  0.39365351    -0.02900
Br1381     Br  0.67500234  0.84496403  0.42359128    -0.02600
H1382       H  0.69128821  0.88148241  0.38256739     0.09600
H1383       H  0.73754476  0.79906258  0.36004268     0.07600
Br1384     Br  0.75442007  0.83589313  0.32016974    -0.03000
C1385       C  0.81772383  0.71569997  0.15223912    -0.09600
C1386       C  0.79580193  0.72611715  0.13902120     0.06600
C1387       C  0.77121181  0.71371789  0.14175860    -0.03400
C1388       C  0.76885287  0.69157040  0.15775475    -0.07800
C1389       C  0.79053147  0.68169258  0.17160845     0.05700
C1390       C  0.81521529  0.69368114  0.16857202    -0.02900
Br1391     Br  0.84607121  0.67998785  0.18533405    -0.02600
H1392       H  0.83670281  0.72514971  0.15045176     0.09600
H1393       H  0.74990113  0.68203578  0.15950947     0.07600
Br1394     Br  0.74039891  0.72554303  0.12341334    -0.03000
C1395       C  0.87281458  0.82142324  0.17043537    -0.09600
C1396       C  0.84684944  0.81205854  0.17240297     0.06600
C1397       C  0.83713920  0.80465975  0.19721953    -0.03400
C1398       C  0.85343385  0.80613981  0.21919234    -0.07800
C1399       C  0.87948404  0.81511877  0.21731441     0.05700
C1400       C  0.88905537  0.82329661  0.19267571    -0.02900
Br1401     Br  0.92432959  0.83561870  0.18792816    -0.02600
H1402       H  0.88060271  0.82705138  0.15145016     0.09600
H1403       H  0.84553615  0.80018848  0.23804103     0.07600
Br1404     Br  0.80259364  0.79038075  0.20241187    -0.03000
C1405       C  0.76278398  0.49945370  0.25147634    -0.09600
C1406       C  0.76398353  0.49887005  0.27902891     0.06600
C1407       C  0.76421244  0.52314860  0.29274576    -0.03400
C1408       C  0.76476793  0.54688703  0.27879798    -0.07800
C1409       C  0.76485031  0.54742803  0.25120491     0.05700
C1410       C  0.76308125  0.52317622  0.23753276    -0.02900
Br1411     Br  0.76264698  0.52012351  0.19984116    -0.02600
H1412       H  0.76237424  0.48120491  0.24053257     0.09600
H1413       H  0.76576903  0.56511541  0.28973475     0.07600
Br1414     Br  0.76558242  0.52602721  0.33042131    -0.03000
C1415       C  0.81651729  0.34614567  0.39849170    -0.09600
C1416       C  0.81148911  0.32151255  0.38736143     0.06600
C1417       C  0.80501294  0.31989965  0.36036738    -0.03400
C1418       C  0.80149181  0.34273014  0.34567013    -0.07800
C1419       C  0.80431372  0.36747627  0.35725348     0.05700
C1420       C  0.81303033  0.36910845  0.38368902    -0.02900
Br1421     Br  0.82131948  0.40187542  0.40050040    -0.02600
H1422       H  0.82243771  0.34758253  0.41891987     0.09600
H1423       H  0.79566234  0.34105512  0.32524232     0.07600
Br1424     Br  0.80144987  0.28708399  0.34201879    -0.03000
C1425       C  0.86798260  0.20264364  0.32380595    -0.09600
C1426       C  0.88806078  0.21962088  0.31563864     0.06600
C1427       C  0.89371894  0.24214307  0.33060072    -0.03400
C1428       C  0.87910353  0.24760749  0.35317079    -0.07800
C1429       C  0.85819884  0.23131637  0.36079994     0.05700
C1430       C  0.85284227  0.20844627  0.34605153    -0.02900
Br1431     Br  0.82555278  0.18423803  0.35553460    -0.02600
H1432       H  0.86330186  0.18542509  0.31218057     0.09600
H1433       H  0.88359148  0.26515727  0.36436442     0.07600
Br1434     Br  0.92115576  0.26606781  0.32080638    -0.03000
C1435       C  0.75206319  0.02152644  0.23569880    -0.09600
C1436       C  0.74625023  0.04468088  0.24971478     0.06600
C1437       C  0.74281751  0.04291917  0.27727523    -0.03400
C1438       C  0.74329597  0.01837363  0.28960357    -0.07800
C1439       C  0.74721477  0.99513220  0.27525647     0.05700
C1440       C  0.75265466  0.99699002  0.24815046    -0.02900
Br1441     Br  0.76172874  0.96698483  0.22717630    -0.02600
H1442       H  0.75550512  0.02230269  0.21470015     0.09600
H1443       H  0.73956426  0.01743727  0.31055552     0.07600
Br1444     Br  0.73708602  0.07276144  0.29970075    -0.03000
C1445       C  0.80357631  0.16429522  0.23416832    -0.09600
C1446       C  0.80320449  0.14196547  0.21785375     0.06600
C1447       C  0.82694649  0.13357267  0.20620221    -0.03400
C1448       C  0.85027384  0.14742910  0.21128928    -0.07800
C1449       C  0.85024760  0.16989192  0.22736460     0.05700
C1450       C  0.82663070  0.17817483  0.23893674    -0.02900
Br1451     Br  0.82484607  0.20731717  0.26287806    -0.02600
H1452       H  0.78570629  0.17121106  0.24338955     0.09600
H1453       H  0.86845277  0.14080682  0.20246270     0.07600
Br1454     Br  0.82913402  0.10313197  0.18406339    -0.03000
C1455       C  0.68795937  0.40306604  0.32224792    -0.09600
C1456       C  0.71194726  0.39349254  0.31270918     0.06600
C1457       C  0.71284545  0.36783292  0.30197252    -0.03400
C1458       C  0.68983063  0.35328367  0.29905423    -0.07800
C1459       C  0.66558221  0.36354936  0.30678681     0.05700
C1460       C  0.66483361  0.38831117  0.31939645    -0.02900
Br1461     Br  0.63310557  0.40239840  0.33411249    -0.02600
H1462       H  0.68707744  0.42226128  0.33138279     0.09600
H1463       H  0.69084375  0.33405803  0.28997339     0.07600
Br1464     Br  0.74491805  0.35074794  0.29170965    -0.03000
C1465       C  0.69882592  0.19807381  0.12621811    -0.09600
C1466       C  0.70727514  0.22205850  0.13691996     0.06600
C1467       C  0.71785241  0.22231064  0.16268915    -0.03400
C1468       C  0.72115502  0.19894104  0.17646383    -0.07800
C1469       C  0.71399243  0.17485799  0.16543100     0.05700
C1470       C  0.70215210  0.17449231  0.14025827    -0.02900
Br1471     Br  0.68888128  0.14272978  0.12487724    -0.02600
H1472       H  0.69000613  0.19761356  0.10683363     0.09600
H1473       H  0.72979353  0.19961085  0.19594225     0.07600
Br1474     Br  0.72706517  0.25392934  0.18127273    -0.03000
C1475       C  0.63796983  0.29363982  0.17493519    -0.09600
C1476       C  0.65931683  0.31007664  0.16898923     0.06600
C1477       C  0.66457102  0.33182538  0.18533929    -0.03400
C1478       C  0.64916864  0.33609904  0.20775828    -0.07800
C1479       C  0.62869653  0.31884767  0.21423594     0.05700
C1480       C  0.62288964  0.29772123  0.19745647    -0.02900
Br1481     Br  0.59457031  0.27392655  0.20462943    -0.02600
H1482       H  0.63338277  0.27708724  0.16233910     0.09600
H1483       H  0.65386373  0.35231990  0.22074311     0.07600
Br1484     Br  0.69184652  0.35663966  0.17761016    -0.03000
C1485       C  0.03237086  0.25005400  0.25643747    -0.09600
C1486       C  0.03194965  0.27764951  0.25610594     0.06600
C1487       C  0.00728515  0.29051062  0.25676687    -0.03400
C1488       C  0.98409118  0.27577705  0.25694090    -0.07800
C1489       C  0.98449363  0.24820555  0.25631554     0.05700
C1490       C  0.00913186  0.23531478  0.25652690    -0.02900
Br1491     Br  0.01299454  0.19780704  0.25486362    -0.02600
H1492       H  0.05098154  0.23974590  0.25592639     0.09600
H1493       H  0.96548196  0.28610610  0.25678276     0.07600
Br1494     Br  0.00314458  0.32801381  0.25527440    -0.03000
C1495       C  0.17267012  0.29681477  0.33817686    -0.09600
C1496       C  0.16281739  0.30832978  0.36107436     0.06600
C1497       C  0.13832854  0.32128705  0.36025747    -0.03400
C1498       C  0.12386034  0.32183971  0.33683351    -0.07800
C1499       C  0.13324045  0.30935901  0.31409277     0.05700
C1500       C  0.15821215  0.29705864  0.31487561    -0.02900
Br1501     Br  0.17478736  0.28116515  0.28486602    -0.02600
H1502       H  0.19147126  0.28683600  0.33858825     0.09600
H1503       H  0.10516621  0.33199323  0.33643626     0.07600
Br1504     Br  0.12431101  0.33960763  0.39011186    -0.03000
C1505       C  0.50619434  0.24564121  0.26627317    -0.09600
C1506       C  0.48279896  0.25996538  0.26981248     0.06600
C1507       C  0.48456587  0.28760954  0.27212928    -0.03400
C1508       C  0.50923916  0.29980528  0.27273570    -0.07800
C1509       C  0.53264111  0.28519968  0.27112704     0.05700
C1510       C  0.53083155  0.25785489  0.26690790    -0.02900
Br1511     Br  0.56100009  0.23583809  0.26166528    -0.02600
H1512       H  0.50550673  0.22450602  0.26390461     0.09600
H1513       H  0.51006680  0.32089290  0.27550146     0.07600
Br1514     Br  0.45446639  0.31021270  0.27486496    -0.03000
C1515       C  0.33030550  0.13397430  0.31316541    -0.09600
C1516       C  0.30656981  0.14772347  0.31502464     0.06600
C1517       C  0.30674298  0.17534970  0.31348237    -0.03400
C1518       C  0.33015875  0.18868472  0.30898036    -0.07800
C1519       C  0.35388067  0.17510388  0.30561148     0.05700
C1520       C  0.35393456  0.14736965  0.30837720    -0.02900
Br1521     Br  0.38527599  0.12649950  0.30626729    -0.02600
H1522       H  0.33034015  0.11273955  0.31452524     0.09600
H1523       H  0.32956790  0.20989165  0.30740341     0.07600
Br1524     Br  0.27552031  0.19615169  0.31755366    -0.03000
C1525       C  0.19617221  0.19259926  0.36234366    -0.09600
C1526       C  0.21911093  0.17786909  0.36618762     0.06600
C1527       C  0.23639830  0.18471616  0.38679651    -0.03400
C1528       C  0.23078366  0.20633647  0.40268278    -0.07800
C1529       C  0.20790665  0.22110716  0.39877921     0.05700
C1530       C  0.19032070  0.21394279  0.37861218    -0.02900
Br1531     Br  0.15933641  0.23398345  0.37092246    -0.02600
H1532       H  0.18283958  0.18762604  0.34652793     0.09600
H1533       H  0.24483561  0.21225333  0.41758044     0.07600
Br1534     Br  0.26921037  0.16697245  0.39264015    -0.03000
C1535       C  0.18784611  0.39946283  0.21676740    -0.09600
C1536       C  0.21191969  0.38719998  0.22206423     0.06600
C1537       C  0.21219060  0.36037290  0.22918523    -0.03400
C1538       C  0.18865468  0.34676215  0.23210009    -0.07800
C1539       C  0.16448858  0.35921101  0.22796233     0.05700
C1540       C  0.16416639  0.38575016  0.21972026    -0.02900
Br1541     Br  0.13232833  0.40399111  0.21091533    -0.02600
H1542       H  0.18743587  0.41981566  0.21061676     0.09600
H1543       H  0.18929408  0.32633507  0.23799575     0.07600
Br1544     Br  0.24398426  0.34047758  0.23371922    -0.03000
C1545       C  0.28219060  0.32888298  0.13280955    -0.09600
C1546       C  0.30691075  0.31675908  0.13210201     0.06600
C1547       C  0.32688754  0.32576482  0.14914566    -0.03400
C1548       C  0.32172312  0.34648107  0.16658978    -0.07800
C1549       C  0.29685817  0.35832662  0.16730308     0.05700
C1550       C  0.27702983  0.34938883  0.15018306    -0.02900
Br1551     Br  0.24179673  0.36288949  0.15135164    -0.02600
H1552       H  0.26639088  0.32157237  0.12051146     0.09600
H1553       H  0.33711137  0.35331990  0.17964277     0.07600
Br1554     Br  0.36057130  0.30895861  0.15121763    -0.03000
C1555       C  0.34000911  0.23232699  0.19207228    -0.09600
C1556       C  0.35280931  0.22916359  0.16788112     0.06600
C1557       C  0.38004217  0.22315590  0.16786619    -0.03400
C1558       C  0.39375558  0.22120911  0.19165951    -0.07800
C1559       C  0.38106472  0.22543797  0.21566381     0.05700
C1560       C  0.35380761  0.23056770  0.21577302    -0.02900
Br1561     Br  0.33393085  0.23400636  0.24766407    -0.02600
H1562       H  0.31919438  0.23670271  0.19261727     0.09600
H1563       H  0.41456792  0.21676845  0.19138827     0.07600
Br1564     Br  0.39996735  0.21668000  0.13643756    -0.03000
C1565       C  0.27519834  0.25535686  0.98439527    -0.09600
C1566       C  0.24812238  0.26057749  0.98383184     0.06600
C1567       C  0.23525411  0.26592743  0.00805614    -0.03400
C1568       C  0.24915106  0.26446238  0.03176879    -0.07800
C1569       C  0.27594197  0.25833363  0.03233535     0.05700
C1570       C  0.28913878  0.25431438  0.00815339    -0.02900
Br1571     Br  0.32570174  0.24531886  0.00581142    -0.02600
H1572       H  0.28556959  0.25126335  0.96627096     0.09600
H1573       H  0.23879712  0.26798291  0.05003383     0.07600
Br1574     Br  0.19869326  0.27494358  0.01121528    -0.03000
C1575       C  0.22129336  0.34755387  0.84809066    -0.09600
C1576       C  0.22198148  0.37078295  0.86286934     0.06600
C1577       C  0.21726992  0.36941780  0.89033836    -0.03400
C1578       C  0.21296135  0.34499407  0.90232587    -0.07800
C1579       C  0.21349123  0.32186971  0.88747624     0.05700
C1580       C  0.21714177  0.32334740  0.86006253    -0.02900
Br1581     Br  0.21586764  0.29298204  0.83765176    -0.02600
H1582       H  0.22445866  0.34805792  0.82703964     0.09600
H1583       H  0.20990562  0.34399075  0.92337810     0.07600
Br1584     Br  0.21588457  0.39976854  0.91273794    -0.03000
C1585       C  0.32709178  0.41631279  0.79452993    -0.09600
C1586       C  0.31161807  0.40983225  0.81631501     0.06600
C1587       C  0.31888670  0.38850001  0.83234882    -0.03400
C1588       C  0.34101351  0.37353404  0.82598899    -0.07800
C1589       C  0.35635110  0.37972212  0.80395012     0.05700
C1590       C  0.34950973  0.40170046  0.78839506    -0.02900
Br1591     Br  0.36839515  0.41137873  0.75718040    -0.02600
H1592       H  0.32118828  0.43227929  0.78172316     0.09600
H1593       H  0.34607692  0.35679144  0.83813597     0.07600
Br1594     Br  0.29792512  0.37762347  0.86172166    -0.03000
C1595       C  0.24003526  0.27656072  0.54422213    -0.09600
C1596       C  0.26757508  0.27746583  0.54421686     0.06600
C1597       C  0.28086862  0.27608962  0.51974951    -0.03400
C1598       C  0.26657408  0.27671705  0.49630302    -0.07800
C1599       C  0.23906608  0.27791785  0.49627570     0.05700
C1600       C  0.22572737  0.27629337  0.52067269    -0.02900
Br1601     Br  0.18815498  0.27490424  0.52390750    -0.02600
H1602       H  0.22947598  0.27678822  0.56269225     0.09600
H1603       H  0.27720443  0.27697569  0.47787146     0.07600
Br1604     Br  0.31846621  0.27503707  0.51600127    -0.03000
C1605       C  0.37622470  0.30747666  0.67324729    -0.09600
C1606       C  0.35210388  0.32077545  0.67056337     0.06600
C1607       C  0.34516894  0.33989410  0.68941615    -0.03400
C1608       C  0.36197033  0.34469285  0.71072672    -0.07800
C1609       C  0.38548468  0.33060554  0.71364120     0.05700
C1610       C  0.39263918  0.31200051  0.69470541    -0.02900
Br1611     Br  0.42388094  0.29119980  0.69829452    -0.02600
H1612       H  0.38195047  0.29262851  0.65913571     0.09600
H1613       H  0.35608585  0.35857963  0.72572100     0.07600
Br1614     Br  0.31333648  0.35998879  0.68735545    -0.03000
C1615       C  0.12608946  0.24897453  0.82468567    -0.09600
C1616       C  0.12887802  0.22607178  0.80973865     0.06600
C1617       C  0.14847454  0.20770977  0.81664675    -0.03400
C1618       C  0.16512068  0.21273961  0.83805033    -0.07800
C1619       C  0.16227086  0.23571201  0.85299137     0.05700
C1620       C  0.14233609  0.25380965  0.84627334    -0.02900
Br1621     Br  0.13759397  0.28651346  0.86451310    -0.02600
H1622       H  0.11160538  0.26355419  0.81907670     0.09600
H1623       H  0.18024591  0.19863072  0.84310518     0.07600
Br1624     Br  0.15462771  0.17653441  0.79638628    -0.03000
C1625       C  0.18604174  0.19196205  0.73232800    -0.09600
C1626       C  0.16304375  0.18183377  0.72127713     0.06600
C1627       C  0.16383097  0.15723720  0.70848979    -0.03400
C1628       C  0.18719715  0.14263437  0.70824519    -0.07800
C1629       C  0.20984557  0.15210396  0.72083709     0.05700
C1630       C  0.20925655  0.17747113  0.73227134    -0.02900
Br1631     Br  0.23952717  0.19442295  0.74723208    -0.02600
H1632       H  0.18575668  0.21095984  0.74193758     0.09600
H1633       H  0.18755967  0.12371500  0.69851625     0.07600
Br1634     Br  0.13397236  0.14334142  0.69009390    -0.03000
C1635       C  0.31139491  0.20605022  0.63810464    -0.09600
C1636       C  0.30364928  0.23010544  0.64885649     0.06600
C1637       C  0.29525388  0.23116681  0.67530609    -0.03400
C1638       C  0.29304773  0.20806990  0.68984562    -0.07800
C1639       C  0.29901829  0.18373586  0.67853207     0.05700
C1640       C  0.30914282  0.18290235  0.65265111    -0.02900
Br1641     Br  0.32101550  0.15107524  0.63621490    -0.02600
H1642       H  0.31864661  0.20516212  0.61809175     0.09600
H1643       H  0.28588844  0.20911388  0.70987238     0.07600
Br1644     Br  0.28747826  0.26354373  0.69313522    -0.03000
C1645       C  0.76593023  0.27975764  0.03486630    -0.09600
C1646       C  0.73838046  0.28026485  0.03518235     0.06600
C1647       C  0.72487263  0.28013124  0.01075355    -0.03400
C1648       C  0.73899709  0.28060794  0.98711272    -0.07800
C1649       C  0.76656655  0.28121927  0.98683262     0.05700
C1650       C  0.78004516  0.28023283  0.01125999    -0.02900
Br1651     Br  0.81764315  0.28144044  0.01469293    -0.02600
H1652       H  0.77673273  0.27975973  0.05322877     0.09600
H1653       H  0.72821213  0.28126388  0.96875283     0.07600
Br1654     Br  0.68725036  0.28121117  0.00753368    -0.03000
C1655       C  0.00213543  0.29657991  0.76321010    -0.09600
C1656       C  0.97894410  0.28360980  0.75531257     0.06600
C1657       C  0.98074144  0.25675620  0.74823825    -0.03400
C1658       C  0.00526570  0.24418623  0.74804052    -0.07800
C1659       C  0.02848633  0.25776727  0.75424657     0.05700
C1660       C  0.02663122  0.28408706  0.76254095    -0.02900
Br1661     Br  0.05675732  0.30401109  0.77344842    -0.02600
H1662       H  0.00150135  0.31701993  0.76907866     0.09600
H1663       H  0.00630674  0.22388741  0.74171233     0.07600
Br1664     Br  0.95114657  0.23602067  0.73734705    -0.03000
C1665       C  0.88790514  0.32864378  0.83288367    -0.09600
C1666       C  0.87680178  0.32314247  0.80824210     0.06600
C1667       C  0.84989268  0.31620686  0.80696464    -0.03400
C1668       C  0.83527910  0.31321613  0.83003422    -0.07800
C1669       C  0.84677406  0.31706886  0.85476576     0.05700
C1670       C  0.87320356  0.32566574  0.85603516    -0.02900
Br1671     Br  0.89007183  0.33465788  0.88861634    -0.02600
H1672       H  0.90823946  0.33476059  0.83420118     0.09600
H1673       H  0.81493085  0.30715094  0.82860147     0.07600
Br1674     Br  0.83136280  0.31163792  0.77432572    -0.03000
C1675       C  0.79938962  0.17995532  0.87945711    -0.09600
C1676       C  0.79196836  0.18212708  0.85283083     0.06600
C1677       C  0.78839733  0.20732077  0.84187493    -0.03400
C1678       C  0.79164796  0.22947603  0.85764459    -0.07800
C1679       C  0.79870930  0.22727207  0.88424410     0.05700
C1680       C  0.80298165  0.20228927  0.89512219    -0.02900
Br1681     Br  0.81187768  0.19759817  0.93147836    -0.02600
H1682       H  0.80221293  0.16077008  0.88821763     0.09600
H1683       H  0.78844588  0.24869541  0.84905108     0.07600
Br1684     Br  0.77735666  0.21316327  0.80619909    -0.03000
C1685       C  0.77526544  0.27323337  0.53950190    -0.09600
C1686       C  0.75020405  0.26184667  0.54048179     0.06600
C1687       C  0.73840966  0.25340494  0.51680199    -0.03400
C1688       C  0.75167592  0.25608752  0.49298365    -0.07800
C1689       C  0.77705211  0.26679495  0.49175668     0.05700
C1690       C  0.78864825  0.27602430  0.51544829    -0.02900
Br1691     Br  0.82230200  0.29300927  0.51664433    -0.02600
H1692       H  0.78438255  0.28016055  0.55746608     0.09600
H1693       H  0.74235777  0.24851832  0.47538937     0.07600
Br1694     Br  0.70515221  0.23552188  0.51569218    -0.03000
C1695       C  0.81941353  0.39008742  0.69234110    -0.09600
C1696       C  0.81300052  0.40992088  0.71034946     0.06600
C1697       C  0.83005371  0.41523975  0.73140518    -0.03400
C1698       C  0.85216944  0.39950779  0.73535712    -0.07800
C1699       C  0.85739594  0.37807962  0.71874974     0.05700
C1700       C  0.84145115  0.37412348  0.69638373    -0.02900
Br1701     Br  0.84880412  0.34742458  0.67078287    -0.02600
H1702       H  0.80632299  0.38588042  0.67605183     0.09600
H1703       H  0.86456391  0.40324926  0.75228477     0.07600
Br1704     Br  0.82315607  0.44317445  0.75577646    -0.03000
C1705       C  0.72724299  0.34097917  0.68234692    -0.09600
C1706       C  0.72480046  0.36506925  0.66909341     0.06600
C1707       C  0.71869897  0.36478696  0.64185072    -0.03400
C1708       C  0.71558421  0.34083858  0.62870289    -0.07800
C1709       C  0.71867319  0.31696517  0.64194972     0.05700
C1710       C  0.72425141  0.31713964  0.66912424    -0.02900
Br1711     Br  0.72637288  0.28554603  0.68972106    -0.02600
H1712       H  0.73161186  0.34056867  0.70319067     0.09600
H1713       H  0.71103486  0.34085900  0.60788375     0.07600
Br1714     Br  0.71365995  0.39589234  0.62104747    -0.03000
C1715       C  0.50557359  0.30323050  0.76432639    -0.09600
C1716       C  0.48171733  0.28977890  0.76824426     0.06600
C1717       C  0.48238366  0.26201967  0.76938561    -0.03400
C1718       C  0.50653170  0.24878968  0.76866761    -0.07800
C1719       C  0.53047674  0.26245386  0.76676277     0.05700
C1720       C  0.52967011  0.28999264  0.76351999    -0.02900
Br1721     Br  0.56050069  0.31097107  0.75774909    -0.02600
H1722       H  0.50571757  0.32444517  0.76268347     0.09600
H1723       H  0.50654626  0.22760193  0.77067914     0.07600
Br1724     Br  0.45145599  0.24061787  0.77227272    -0.03000
C1725       C  0.65009263  0.20570771  0.70764283    -0.09600
C1726       C  0.62721030  0.22093939  0.70988201     0.06600
C1727       C  0.62111600  0.23919398  0.69022856    -0.03400
C1728       C  0.63826237  0.24277659  0.66916794    -0.07800
C1729       C  0.66202397  0.22866965  0.66738019     0.05700
C1730       C  0.66754778  0.20939996  0.68662366    -0.02900
Br1731     Br  0.69822552  0.18751728  0.68547207    -0.02600
H1732       H  0.65505612  0.19180185  0.72300437     0.09600
H1733       H  0.63330161  0.25745643  0.65456700     0.07600
Br1734     Br  0.58997067  0.26033288  0.69202128    -0.03000
C1735       C  0.65984438  0.15453700  0.80964187    -0.09600
C1736       C  0.66148966  0.17948532  0.79780299     0.06600
C1737       C  0.68592844  0.18832473  0.78836790    -0.03400
C1738       C  0.70795671  0.17238975  0.79090452    -0.07800
C1739       C  0.70651548  0.14753236  0.80279718     0.05700
C1740       C  0.68217296  0.13862126  0.81242261    -0.02900
Br1741     Br  0.67797287  0.10458491  0.82802837    -0.02600
H1742       H  0.64108895  0.14734303  0.81665045     0.09600
H1743       H  0.72653547  0.17968403  0.78352631     0.07600
Br1744     Br  0.69058533  0.22102909  0.77004114    -0.03000
C1745       C  0.24797191  0.02485479  0.23715915    -0.09600
C1746       C  0.24595300  0.00120313  0.25141062     0.06600
C1747       C  0.24682124  0.00233777  0.27912035    -0.03400
C1748       C  0.24766397  0.02668887  0.29176791    -0.07800
C1749       C  0.24784267  0.05042762  0.27754529     0.05700
C1750       C  0.24900649  0.04924846  0.24985979    -0.02900
Br1751     Br  0.25240693  0.07989027  0.22811890    -0.02600
H1752       H  0.24798370  0.02453126  0.21585745     0.09600
H1753       H  0.24736591  0.02694126  0.31306872     0.07600
Br1754     Br  0.24723680  0.97169523  0.30117811    -0.03000
C1755       C  0.50045382  0.80185203  0.25247991    -0.09600
C1756       C  0.47748261  0.78660994  0.24971929     0.06600
C1757       C  0.48018197  0.75902991  0.24825354    -0.03400
C1758       C  0.50522394  0.74763489  0.24831801    -0.07800
C1759       C  0.52821078  0.76294491  0.24980228     0.05700
C1760       C  0.52553028  0.79040356  0.25253771    -0.02900
Br1761     Br  0.55503557  0.81345381  0.25706809    -0.02600
H1762       H  0.49904275  0.82303181  0.25398680     0.09600
H1763       H  0.50665443  0.72647570  0.24652413     0.07600
Br1764     Br  0.45081924  0.73541052  0.24637179    -0.03000
C1765       C  0.32028283  0.85703815  0.22885991    -0.09600
C1766       C  0.34444963  0.86767906  0.22128513     0.06600
C1767       C  0.34523776  0.89350735  0.21112940    -0.03400
C1768       C  0.32217789  0.90843051  0.20964920    -0.07800
C1769       C  0.29817298  0.89817092  0.21835588     0.05700
C1770       C  0.29728585  0.87190547  0.22751459    -0.02900
Br1771     Br  0.26530937  0.85432723  0.23726402    -0.02600
H1772       H  0.31933336  0.83717572  0.23646384     0.09600
H1773       H  0.32306881  0.92822419  0.20188576     0.07600
Br1774     Br  0.37690534  0.90908054  0.19787380    -0.03000
C1775       C  0.36606750  0.82286229  0.35281854    -0.09600
C1776       C  0.34127145  0.81090145  0.34997625     0.06600
C1777       C  0.33267357  0.80337005  0.32482085    -0.03400
C1778       C  0.34924634  0.80686046  0.30334235    -0.07800
C1779       C  0.37438057  0.81801903  0.30621396     0.05700
C1780       C  0.38251636  0.82676729  0.33113195    -0.02900
Br1781     Br  0.41623354  0.84253415  0.33698363    -0.02600
H1782       H  0.37285285  0.82885359  0.37210461     0.09600
H1783       H  0.34243401  0.80055462  0.28415952     0.07600
Br1784     Br  0.29959039  0.78629273  0.31863881    -0.03000
C1785       C  0.22849062  0.83986688  0.13453868    -0.09600
C1786       C  0.20535274  0.82539813  0.13772289     0.06600
C1787       C  0.18622251  0.83412535  0.15569660    -0.03400
C1788       C  0.19059072  0.85698978  0.17034472    -0.07800
C1789       C  0.21373456  0.87153055  0.16707351     0.05700
C1790       C  0.23276323  0.86285724  0.14884268    -0.02900
Br1791     Br  0.26602685  0.88011343  0.14426490    -0.02600
H1792       H  0.24362827  0.83285605  0.12130928     0.09600
H1793       H  0.17594617  0.86335497  0.18441705     0.07600
Br1794     Br  0.15490569  0.81443642  0.16249252    -0.03000
C1795       C  0.27181407  0.51559667  0.29292098    -0.09600
C1796       C  0.26919523  0.53849272  0.27758095     0.06600
C1797       C  0.26610320  0.53575594  0.25016728    -0.03400
C1798       C  0.26653306  0.51077136  0.23874309    -0.07800
C1799       C  0.27015187  0.48784518  0.25388594     0.05700
C1800       C  0.27241198  0.49052917  0.28145449    -0.02900
Br1801     Br  0.27625906  0.46115612  0.30481987    -0.02600
H1802       H  0.27406765  0.51718016  0.31403792     0.09600
H1803       H  0.26452807  0.50945197  0.21758897     0.07600
Br1804     Br  0.26049846  0.56505205  0.22702141    -0.03000
C1805       C  0.26943222  0.70855406  0.38485622    -0.09600
C1806       C  0.29416097  0.72073148  0.38548542     0.06600
C1807       C  0.31487842  0.71001317  0.37050790    -0.03400
C1808       C  0.31052984  0.68753563  0.35526059    -0.07800
C1809       C  0.28585028  0.67537672  0.35485263     0.05700
C1810       C  0.26520272  0.68596095  0.36987505    -0.02900
Br1811     Br  0.23042462  0.67134421  0.36913819    -0.02600
H1812       H  0.25316465  0.71695372  0.39571801     0.09600
H1813       H  0.32651183  0.67943449  0.34376474     0.07600
Br1814     Br  0.34878529  0.72633907  0.36834068    -0.03000
C1815       C  0.00469772  0.73844671  0.27758091    -0.09600
C1816       C  0.02810284  0.75276148  0.27447470     0.06600
C1817       C  0.02654798  0.78013391  0.27072032    -0.03400
C1818       C  0.00208419  0.79260430  0.27118297    -0.07800
C1819       C  0.97866791  0.77850691  0.27559597     0.05700
C1820       C  0.98021122  0.75091110  0.27833148    -0.02900
Br1821     Br  0.95017789  0.72870678  0.28365288    -0.02600
H1822       H  0.00545232  0.71736221  0.28040975     0.09600
H1823       H  0.00157739  0.81373016  0.26870380     0.07600
Br1824     Br  0.05683623  0.80172427  0.26443726    -0.03000
C1825       C  0.13221763  0.74626828  0.17329460    -0.09600
C1826       C  0.15534845  0.73192587  0.16859998     0.06600
C1827       C  0.16117654  0.71022411  0.18486419    -0.03400
C1828       C  0.14492841  0.70446520  0.20634601    -0.07800
C1829       C  0.12294591  0.72009373  0.21199145     0.05700
C1830       C  0.11634247  0.74079882  0.19500759    -0.02900
Br1831     Br  0.08607909  0.76237767  0.20113750    -0.02600
H1832       H  0.12685435  0.76240200  0.16049195     0.09600
H1833       H  0.15016042  0.68845389  0.21939506     0.07600
Br1834     Br  0.19035102  0.68729853  0.17820491    -0.03000
C1835       C  0.15874787  0.64569656  0.30987042    -0.09600
C1836       C  0.16042378  0.67017346  0.29716659     0.06600
C1837       C  0.18449567  0.67823173  0.28638432    -0.03400
C1838       C  0.20633751  0.66198790  0.28859502    -0.07800
C1839       C  0.20498548  0.63766952  0.30167577     0.05700
C1840       C  0.18085282  0.62953096  0.31246615    -0.02900
Br1841     Br  0.17654619  0.59643306  0.32997092    -0.02600
H1842       H  0.14017193  0.63917795  0.31791089     0.09600
H1843       H  0.22472496  0.66880649  0.28037464     0.07600
Br1844     Br  0.18865331  0.71041952  0.26708658    -0.03000
C1845       C  0.27025738  0.00147665  0.75475974    -0.09600
C1846       C  0.26468634  0.00058803  0.78179079     0.06600
C1847       C  0.25832789  0.02450461  0.79471861    -0.03400
C1848       C  0.25954443  0.04835834  0.78102084    -0.07800
C1849       C  0.26624283  0.04923677  0.75432415     0.05700
C1850       C  0.27098059  0.02528825  0.74100499    -0.02900
Br1851     Br  0.28082194  0.02343440  0.70457339    -0.02600
H1852       H  0.27496341  0.98357314  0.74427898     0.09600
H1853       H  0.25538934  0.06645147  0.79142634     0.07600
Br1854     Br  0.24802150  0.02686229  0.83100761    -0.03000
C1855       C  0.16721195  0.89202145  0.78633493    -0.09600
C1856       C  0.16092630  0.87165204  0.80385106     0.06600
C1857       C  0.17536416  0.86901582  0.82734611    -0.03400
C1858       C  0.19649990  0.88589086  0.83231309    -0.07800
C1859       C  0.20366250  0.90522501  0.81404265     0.05700
C1860       C  0.18858460  0.90853231  0.79110580    -0.02900
Br1861     Br  0.19682348  0.93506155  0.76559789    -0.02600
H1862       H  0.15594772  0.89457602  0.76840327     0.09600
H1863       H  0.20822241  0.88299717  0.84986794     0.07600
Br1864     Br  0.16672940  0.84320069  0.85342333    -0.03000
C1865       C  0.24519720  0.77105153  0.99350135    -0.09600
C1866       C  0.27230475  0.76624509  0.99396796     0.06600
C1867       C  0.28492208  0.76396498  0.01871154    -0.03400
C1868       C  0.27011058  0.76472087  0.04193049    -0.07800
C1869       C  0.24271804  0.76818108  0.04144559     0.05700
C1870       C  0.23045076  0.77242290  0.01670337    -0.02900
Br1871     Br  0.19361968  0.77952465  0.01227346    -0.02600
H1872       H  0.23523894  0.77349290  0.97481460     0.09600
H1873       H  0.28011860  0.76177063  0.06050779     0.07600
Br1874     Br  0.32197876  0.75798008  0.02265396    -0.03000
C1875       C  0.28291840  0.84027427  0.90212355    -0.09600
C1876       C  0.30484636  0.82473274  0.89644201     0.06600
C1877       C  0.32065558  0.83111665  0.87461800    -0.03400
C1878       C  0.31408364  0.85259618  0.85866697    -0.07800
C1879       C  0.29205063  0.86813659  0.86435875     0.05700
C1880       C  0.27657697  0.86195967  0.88656588    -0.02900
Br1881     Br  0.24535249  0.88105290  0.89568380    -0.02600
H1882       H  0.27013717  0.83497544  0.91830498     0.09600
H1883       H  0.32628533  0.85724205  0.84185991     0.07600
Br1884     Br  0.35026284  0.81008214  0.86471544    -0.03000
C1885       C  0.34111603  0.74549373  0.83648967    -0.09600
C1886       C  0.35209245  0.73728360  0.86032515     0.06600
C1887       C  0.37795350  0.72709732  0.86049468    -0.03400
C1888       C  0.39233742  0.72581257  0.83705538    -0.07800
C1889       C  0.38162154  0.73499686  0.81336303     0.05700
C1890       C  0.35555311  0.74468523  0.81324476    -0.02900
Br1891     Br  0.33757968  0.75613913  0.78205489    -0.02600
H1892       H  0.32134291  0.75335635  0.83601744     0.09600
H1893       H  0.41204048  0.71778941  0.83738887     0.07600
Br1894     Br  0.39438733  0.71361536  0.89172053    -0.03000
C1895       C  0.23900331  0.55262284  0.78386283    -0.09600
C1896       C  0.25115896  0.55415180  0.75913704     0.06600
C1897       C  0.26443080  0.53172190  0.74938111    -0.03400
C1898       C  0.26368483  0.50812368  0.76351689    -0.07800
C1899       C  0.25053714  0.50649181  0.78763998     0.05700
C1900       C  0.23852970  0.52915630  0.79803618    -0.02900
Br1901     Br  0.21855156  0.52867303  0.83001703    -0.02600
H1902       H  0.22853263  0.56940438  0.79170498     0.09600
H1903       H  0.27329568  0.49088378  0.75554980     0.07600
Br1904     Br  0.28425830  0.53175002  0.71726035    -0.03000
C1905       C  0.30297451  0.67985227  0.71624953    -0.09600
C1906       C  0.30423289  0.65248321  0.71879690     0.06600
C1907       C  0.32847456  0.64052173  0.72408418    -0.03400
C1908       C  0.35080114  0.65614489  0.72806521    -0.07800
C1909       C  0.34958839  0.68382152  0.72638542     0.05700
C1910       C  0.32529721  0.69554281  0.71948240    -0.02900
Br1911     Br  0.32042749  0.73260868  0.71440682    -0.02600
H1912       H  0.28429566  0.68914928  0.71189398     0.09600
H1913       H  0.36915644  0.64648931  0.73285681     0.07600
Br1914     Br  0.33156019  0.60315135  0.72763650    -0.03000
C1915       C  0.22716731  0.77685634  0.51314492    -0.09600
C1916       C  0.24312570  0.77897138  0.53571974     0.06600
C1917       C  0.27065221  0.77936521  0.53242498    -0.03400
C1918       C  0.28134178  0.77938843  0.50708874    -0.07800
C1919       C  0.26527540  0.77901226  0.48452688     0.05700
C1920       C  0.23787164  0.77686147  0.48782885    -0.02900
Br1921     Br  0.21381137  0.77356570  0.45888953    -0.02600
H1922       H  0.20599476  0.77602300  0.51503376     0.09600
H1923       H  0.30249089  0.78060047  0.50510517     0.07600
Br1924     Br  0.29501644  0.77990346  0.56129370    -0.03000
C1925       C  0.20296531  0.70062659  0.62900721    -0.09600
C1926       C  0.21085558  0.72490788  0.63931938     0.06600
C1927       C  0.21975418  0.72632493  0.66564423    -0.03400
C1928       C  0.22162645  0.70363574  0.68064901    -0.07800
C1929       C  0.21504232  0.67919426  0.67007748     0.05700
C1930       C  0.20523528  0.67770076  0.64411783    -0.02900
Br1931     Br  0.19391107  0.64521532  0.62870290    -0.02600
H1932       H  0.19561015  0.69940556  0.60904096     0.09600
H1933       H  0.22907565  0.70506043  0.70058357     0.07600
Br1934     Br  0.22896482  0.75860950  0.68304942    -0.03000
C1935       C  0.15269161  0.83678730  0.70759186    -0.09600
C1936       C  0.13270606  0.81879052  0.71367517     0.06600
C1937       C  0.12837420  0.79717037  0.69711692    -0.03400
C1938       C  0.14389513  0.79379471  0.67478135    -0.07800
C1939       C  0.16439431  0.81132169  0.66891139     0.05700
C1940       C  0.16870251  0.83309782  0.68547119    -0.02900
Br1941     Br  0.19544865  0.85866417  0.67838217    -0.02600
H1942       H  0.15638645  0.85328097  0.72055084     0.09600
H1943       H  0.14027868  0.77699398  0.66220407     0.07600
Br1944     Br  0.10150202  0.77175063  0.70434507    -0.03000
C1945       C  0.76730346  0.99925810  0.77314822    -0.09600
C1946       C  0.77264902  0.99879576  0.74611237     0.06600
C1947       C  0.77553669  0.02295194  0.73268636    -0.03400
C1948       C  0.77327536  0.04665148  0.74638992    -0.07800
C1949       C  0.76850712  0.04723177  0.77359547     0.05700
C1950       C  0.76518732  0.02297922  0.78695011    -0.02900
Br1951     Br  0.75894284  0.02001255  0.82410482    -0.02600
H1952       H  0.76506828  0.98095374  0.78377007     0.09600
H1953       H  0.77620201  0.06480475  0.73568971     0.07600
Br1954     Br  0.78509070  0.02542784  0.69620656    -0.03000
C1955       C  0.74185176  0.74718064  0.53613241    -0.09600
C1956       C  0.76607326  0.76018753  0.53838469     0.06600
C1957       C  0.77640421  0.77283815  0.51575900    -0.03400
C1958       C  0.76328774  0.77096550  0.49152782    -0.07800
C1959       C  0.73950596  0.75734983  0.48932294     0.05700
C1960       C  0.72860968  0.74570643  0.51203565    -0.02900
Br1961     Br  0.69678749  0.72545340  0.51094879    -0.02600
H1962       H  0.73360179  0.73710081  0.55295828     0.09600
H1963       H  0.77155920  0.78046018  0.47436937     0.07600
Br1964     Br  0.80780720  0.79375328  0.51640163    -0.03000
C1965       C  0.79284926  0.81714914  0.66273149    -0.09600
C1966       C  0.80457989  0.81797989  0.63770585     0.06600
C1967       C  0.81524007  0.84191096  0.62875492    -0.03400
C1968       C  0.81296347  0.86450019  0.64441469    -0.07800
C1969       C  0.80079973  0.86355213  0.66925153     0.05700
C1970       C  0.79095990  0.83945194  0.67845332    -0.02900
Br1971     Br  0.77275539  0.83587559  0.71130819    -0.02600
H1972       H  0.78489965  0.79890771  0.67025500     0.09600
H1973       H  0.82053469  0.88296871  0.63706009     0.07600
Br1974     Br  0.83182819  0.84536097  0.59507773    -0.03000
C1975       C  0.72693422  0.78471342  0.01117962    -0.09600
C1976       C  0.74237865  0.78616078  0.98821537     0.06600
C1977       C  0.77000425  0.78574420  0.99101392    -0.03400
C1978       C  0.78131123  0.78502675  0.01612049    -0.07800
C1979       C  0.76587465  0.78484303  0.03905411     0.05700
C1980       C  0.73829300  0.78409563  0.03630830    -0.02900
Br1981     Br  0.71487825  0.78174995  0.06580324    -0.02600
H1982       H  0.70570418  0.78462994  0.00972214     0.09600
H1983       H  0.80253751  0.78546355  0.01764394     0.07600
Br1984     Br  0.79385288  0.78615131  0.96178411    -0.03000
C1985       C  0.53085712  0.76391429  0.73965631    -0.09600
C1986       C  0.53342601  0.78978664  0.74898834     0.06600
C1987       C  0.51078115  0.80221215  0.75959655    -0.03400
C1988       C  0.48672314  0.78874434  0.76058832    -0.07800
C1989       C  0.48439683  0.76295035  0.75128811     0.05700
C1990       C  0.50676214  0.75067803  0.74040916    -0.02900
Br1991     Br  0.50510946  0.71699629  0.72344936    -0.02600
H1992       H  0.54749568  0.75410079  0.73076511     0.09600
H1993       H  0.46962450  0.79858048  0.76855424     0.07600
Br1994     Br  0.51051867  0.83756152  0.77282742    -0.03000
C1995       C  0.65210173  0.83819469  0.81455948    -0.09600
C1996       C  0.63076704  0.82165582  0.80895996     0.06600
C1997       C  0.62522505  0.80060363  0.82591937    -0.03400
C1998       C  0.64104011  0.79620811  0.84796301    -0.07800
C1999       C  0.66306596  0.81205472  0.85312571     0.05700
C2000       C  0.66845576  0.83339055  0.83624947    -0.02900
Br2001     Br  0.69736510  0.85688808  0.84205204    -0.02600
H2002       H  0.65676901  0.85421275  0.80132923     0.09600
H2003       H  0.63640912  0.77990370  0.86085112     0.07600
Br2004     Br  0.59623339  0.77735026  0.81962474    -0.03000
C2005       C  0.66823106  0.89085906  0.70678030    -0.09600
C2006       C  0.66864914  0.86770308  0.72190819     0.06600
C2007       C  0.69204401  0.86033437  0.73460258    -0.03400
C2008       C  0.71436270  0.87589611  0.73200377    -0.07800
C2009       C  0.71432689  0.89881980  0.71654172     0.05700
C2010       C  0.69089795  0.90627662  0.70374081    -0.02900
Br2011     Br  0.68821201  0.93774255  0.68315365    -0.02600
H2012       H  0.65017881  0.89697331  0.69728382     0.09600
H2013       H  0.73204574  0.86976355  0.74214542     0.07600
Br2014     Br  0.69449020  0.83023738  0.75724615    -0.03000
C2015       C  0.98765844  0.77956201  0.76256123    -0.09600
C2016       C  0.98751029  0.75290716  0.76934957     0.06600
C2017       C  0.01176389  0.74042447  0.77473191    -0.03400
C2018       C  0.03512781  0.75503837  0.77466871    -0.07800
C2019       C  0.03516281  0.78210395  0.76912554     0.05700
C2020       C  0.01096392  0.79411259  0.76206746    -0.02900
Br2021     Br  0.00727744  0.83038932  0.75216911    -0.02600
H2022       H  0.96932346  0.78935303  0.75794791     0.09600
H2023       H  0.05327818  0.74525550  0.77993531     0.07600
Br2024     Br  0.01439573  0.70410175  0.78462706    -0.03000
C2025       C  0.88688449  0.74752970  0.69785831    -0.09600
C2026       C  0.88847626  0.72266382  0.70964262     0.06600
C2027       C  0.87335241  0.70185692  0.69917883    -0.03400
C2028       C  0.85648503  0.70648057  0.67781180    -0.07800
C2029       C  0.85472327  0.73150382  0.66643847     0.05700
C2030       C  0.87041965  0.75200802  0.67636233    -0.02900
Br2031     Br  0.86870576  0.78704612  0.66246454    -0.02600
H2032       H  0.89796929  0.76382272  0.70593273     0.09600
H2033       H  0.84469342  0.69052835  0.67008206     0.07600
Br2034     Br  0.87322745  0.66741556  0.71450960    -0.03000
C2035       C  0.75608018  0.54665037  0.75274250    -0.09600
C2036       C  0.74601219  0.54735671  0.77837037     0.06600
C2037       C  0.73748216  0.52370678  0.79008215    -0.03400
C2038       C  0.73861552  0.50020645  0.77600242    -0.07800
C2039       C  0.74808031  0.49937763  0.75009222     0.05700
C2040       C  0.75752482  0.52297687  0.73867142    -0.02900
Br2041     Br  0.77329495  0.52458536  0.70441781    -0.02600
H2042       H  0.76305023  0.56459325  0.74367871     0.09600
H2043       H  0.73110550  0.48256942  0.78522077     0.07600
Br2044     Br  0.72177145  0.52225812  0.82440735    -0.03000
C2045       C  0.80452364  0.67233396  0.79629632    -0.09600
C2046       C  0.80603442  0.64706714  0.80742383     0.06600
C2047       C  0.83080304  0.63700269  0.81450595    -0.03400
C2048       C  0.85339488  0.65205877  0.80991250    -0.07800
C2049       C  0.85176413  0.67728161  0.79864682     0.05700
C2050       C  0.82693793  0.68740939  0.79190207    -0.02900
Br2051     Br  0.82222149  0.72074213  0.77480488    -0.02600
H2052       H  0.78564907  0.68052674  0.79085315     0.09600
H2053       H  0.87238002  0.64393680  0.81504935     0.07600
Br2054     Br  0.83519420  0.60246377  0.82890279    -0.03000
C2055       C  0.69562921  0.68663543  0.86782855    -0.09600
C2056       C  0.72129880  0.67844484  0.86222239     0.06600
C2057       C  0.74264674  0.69201798  0.87325175    -0.03400
C2058       C  0.73818894  0.71429580  0.88852259    -0.07800
C2059       C  0.71257499  0.72333311  0.89340726     0.05700
C2060       C  0.69106566  0.70882771  0.88349883    -0.02900
Br2061     Br  0.65523892  0.71918728  0.88895665    -0.02600
H2062       H  0.67911440  0.67581012  0.85991504     0.09600
H2063       H  0.75494772  0.72513481  0.89593701     0.07600
Br2064     Br  0.77835532  0.68186002  0.86667111    -0.03000
C2065       C  0.90728358  0.94955315  0.71409624    -0.09600
C2066       C  0.91537457  0.95846942  0.68944614     0.06600
C2067       C  0.89636361  0.96460706  0.67015193    -0.03400
C2068       C  0.86980328  0.96089305  0.67554358    -0.07800
C2069       C  0.86155138  0.95139243  0.70003969     0.05700
C2070       C  0.88066731  0.94640874  0.71977361    -0.02900
Br2071     Br  0.87247029  0.93617349  0.75522715    -0.02600
H2072       H  0.92174379  0.94548868  0.72920454     0.09600
H2073       H  0.85560822  0.96480197  0.66015847     0.07600
Br2074     Br  0.90517574  0.97654690  0.63541944    -0.03000
C2075       C  0.18031579  0.90564101  0.55642347    -0.09600
C2076       C  0.19161683  0.92381976  0.57409241     0.06600
C2077       C  0.20702734  0.91431041  0.59508265    -0.03400
C2078       C  0.20992092  0.88735450  0.59846260    -0.07800
C2079       C  0.19775127  0.86925712  0.58147183     0.05700
C2080       C  0.18318783  0.87860607  0.55995099    -0.02900
Br2081     Br  0.16744562  0.85576343  0.53435314    -0.02600
H2082       H  0.16864772  0.91237490  0.53993265     0.09600
H2083       H  0.22134009  0.88051548  0.61510062     0.07600
Br2084     Br  0.22448522  0.93630223  0.62037419    -0.03000
C2085       C  0.10738281  0.99005199  0.63669897    -0.09600
C2086       C  0.10738638  0.98149808  0.61025908     0.06600
C2087       C  0.08537704  0.96742744  0.60081574    -0.03400
C2088       C  0.06381099  0.96345089  0.61722553    -0.07800
C2089       C  0.06368371  0.97259439  0.64317174     0.05700
C2090       C  0.08570266  0.98579746  0.65306773    -0.02900
Br2091     Br  0.08621061  0.99965287  0.68811983    -0.02600
H2092       H  0.12397911  0.00080412  0.64455824     0.09600
H2093       H  0.04649436  0.95393415  0.60932307     0.07600
Br2094     Br  0.08279435  0.95307724  0.56596453    -0.03000
C2095       C  0.07347133  0.22698526  0.61766141    -0.09600
C2096       C  0.07460289  0.20104459  0.60867693     0.06600
C2097       C  0.07595481  0.18025606  0.62688142    -0.03400
C2098       C  0.07652365  0.18562967  0.65370715    -0.07800
C2099       C  0.07596422  0.21156620  0.66288790     0.05700
C2100       C  0.07396214  0.23240926  0.64462708    -0.02900
Br2101     Br  0.07048527  0.26841908  0.65526757    -0.02600
H2102       H  0.07161294  0.24296524  0.60371999     0.09600
H2103       H  0.07856261  0.16945342  0.66738979     0.07600
Br2104     Br  0.07884904  0.14419342  0.61613404    -0.03000
C2105       C  0.09677413  0.09359553  0.55368503    -0.09600
C2106       C  0.11017791  0.11739175  0.55018862     0.06600
C2107       C  0.13802100  0.11756505  0.55275450    -0.03400
C2108       C  0.15154984  0.09407199  0.55758221    -0.07800
C2109       C  0.13797083  0.07033847  0.55967390     0.05700
C2110       C  0.11033153  0.07029938  0.55829542    -0.02900
Br2111     Br  0.08986824  0.03894749  0.56292451    -0.02600
H2112       H  0.07554787  0.09288668  0.55237073     0.09600
H2113       H  0.17280604  0.09419016  0.55872249     0.07600
Br2114     Br  0.15933178  0.14856818  0.54964777    -0.03000
C2115       C  0.93757429  0.81651848  0.40868639    -0.09600
C2116       C  0.93913541  0.84247678  0.41753111     0.06600
C2117       C  0.93879678  0.86319609  0.39914515    -0.03400
C2118       C  0.93657318  0.85776834  0.37236204    -0.07800
C2119       C  0.93466913  0.83184608  0.36334667     0.05700
C2120       C  0.93564995  0.81101174  0.38178689    -0.02900
Br2121     Br  0.93600651  0.77468482  0.37154332    -0.02600
H2122       H  0.93862630  0.80048850  0.42267109     0.09600
H2123       H  0.93539924  0.87398406  0.35860656     0.07600
Br2124     Br  0.93981342  0.89942550  0.40963713    -0.03000
C2125       C  0.98670121  0.88800691  0.57754790    -0.09600
C2126       C  0.96194939  0.89033164  0.56556469     0.06600
C2127       C  0.94382305  0.90861545  0.57576372    -0.03400
C2128       C  0.95104864  0.92477316  0.59691197    -0.07800
C2129       C  0.97591788  0.92261886  0.60867181     0.05700
C2130       C  0.99360653  0.90356503  0.59915959    -0.02900
Br2131     Br  0.02807505  0.89903962  0.61376450    -0.02600
H2132       H  0.00102966  0.87442017  0.56960006     0.09600
H2133       H  0.93712747  0.93903178  0.60425597     0.07600
Br2134     Br  0.90979199  0.91377736  0.56035151    -0.03000
C2135       C  0.80571823  0.16026009  0.44280079    -0.09600
C2136       C  0.82541886  0.17836118  0.45015659     0.06600
C2137       C  0.84822201  0.16883760  0.46278340    -0.03400
C2138       C  0.85121935  0.14189184  0.46671680    -0.07800
C2139       C  0.83207324  0.12387344  0.45826632     0.05700
C2140       C  0.80887758  0.13328699  0.44668383    -0.02900
Br2141     Br  0.78050431  0.11050803  0.43677278    -0.02600
H2142       H  0.78780414  0.16697702  0.43348277     0.09600
H2143       H  0.86912995  0.13490330  0.47587599     0.07600
Br2144     Br  0.87655541  0.19080029  0.47467608    -0.03000
C2145       C  0.87408497  0.95391221  0.46287439    -0.09600
C2146       C  0.88402098  0.97654741  0.47517505     0.06600
C2147       C  0.90792718  0.97465590  0.48941552    -0.03400
C2148       C  0.92107590  0.95075236  0.49112643    -0.07800
C2149       C  0.91090893  0.92812670  0.47946848     0.05700
C2150       C  0.88713345  0.92970530  0.46521750    -0.02900
Br2151     Br  0.87228019  0.89980512  0.44770295    -0.02600
H2152       H  0.85599466  0.95496280  0.45169489     0.09600
H2153       H  0.93925613  0.94972375  0.50220087     0.07600
Br2154     Br  0.92486892  0.00372617  0.50655695    -0.03000
C2155       C  0.15196200  0.06882300  0.33326996    -0.09600
C2156       C  0.15971220  0.09461436  0.32788422     0.06600
C2157       C  0.14038832  0.11410372  0.32397207    -0.03400
C2158       C  0.11389374  0.10774292  0.32612769    -0.07800
C2159       C  0.10593495  0.08211801  0.33216511     0.05700
C2160       C  0.12531581  0.06231268  0.33509657    -0.02900
Br2161     Br  0.11708404  0.02589995  0.34064555    -0.02600
H2162       H  0.16665973  0.05361063  0.33556136     0.09600
H2163       H  0.09950187  0.12328512  0.32415963     0.07600
Br2164     Br  0.14874819  0.15031756  0.31757018    -0.03000
C2165       C  0.96528856  0.06803220  0.42104926    -0.09600
C2166       C  0.96247158  0.07069406  0.39371163     0.06600
C2167       C  0.93719302  0.07247548  0.38285717    -0.03400
C2168       C  0.91525594  0.06975077  0.39921425    -0.07800
C2169       C  0.91797430  0.06580384  0.42658138     0.05700
C2170       C  0.94346617  0.06605075  0.43755425    -0.02900
Br2171     Br  0.95046699  0.06303063  0.47451515    -0.02600
H2172       H  0.98476025  0.06736382  0.42967058     0.09600
H2173       H  0.89593026  0.07020315  0.39029989     0.07600
Br2174     Br  0.93162064  0.07663066  0.34578237    -0.03000
C2175       C  0.03376514  0.14009504  0.42371927    -0.09600
C2176       C  0.05197999  0.12059920  0.41681795     0.06600
C2177       C  0.07603341  0.11910010  0.43046659    -0.03400
C2178       C  0.08079572  0.13604389  0.45168570    -0.07800
C2179       C  0.06174203  0.15434962  0.45957468     0.05700
C2180       C  0.03835417  0.15671997  0.44501894    -0.02900
Br2181     Br  0.01186278  0.18208664  0.45384083    -0.02600
H2182       H  0.01543247  0.14185066  0.41300829     0.09600
H2183       H  0.09878869  0.13395924  0.46289468     0.07600
Br2184     Br  0.10306080  0.09480639  0.42053555    -0.03000
C2185       C  0.88848832  0.07386480  0.84702983    -0.09600
C2186       C  0.90725490  0.08765434  0.83212020     0.06600
C2187       C  0.89859292  0.10518756  0.81254049    -0.03400
C2188       C  0.87173655  0.10894351  0.80872363    -0.07800
C2189       C  0.85294678  0.09563930  0.82407123     0.05700
C2190       C  0.86163029  0.07765734  0.84327314    -0.02900
Br2191     Br  0.83841528  0.05730665  0.86499579    -0.02600
H2192       H  0.89468156  0.06028025  0.86222501     0.09600
H2193       H  0.86559207  0.12278863  0.79375053     0.07600
Br2194     Br  0.92194177  0.12432247  0.78989664    -0.03000
C2195       C  0.99446722  0.04932094  0.76540211    -0.09600
C2196       C  0.99619905  0.03530950  0.78920346     0.06600
C2197       C  0.00049215  0.00794523  0.78794967    -0.03400
C2198       C  0.00214924  0.99534601  0.76338270    -0.07800
C2199       C  0.99949388  0.00931214  0.73951274     0.05700
C2200       C  0.99596928  0.03683380  0.74092593    -0.02900
Br2201     Br  0.99258453  0.05912473  0.71062363    -0.02600
H2202       H  0.99121042  0.07035246  0.76570216     0.09600
H2203       H  0.00502640  0.97426690  0.76306471     0.07600
Br2204     Br  0.00487091  0.98667206  0.81881180    -0.03000
C2205       C  0.18550271  0.13893363  0.96672441    -0.09600
C2206       C  0.19228424  0.11992791  0.94774045     0.06600
C2207       C  0.20436257  0.12829246  0.92418060    -0.03400
C2208       C  0.20775864  0.15510027  0.91955114    -0.07800
C2209       C  0.19936093  0.17397155  0.93785639     0.05700
C2210       C  0.18887794  0.16568511  0.96197933    -0.02900
Br2211     Br  0.17965970  0.18979068  0.98950855    -0.02600
H2212       H  0.17680227  0.13309793  0.98525460     0.09600
H2213       H  0.21635692  0.16127302  0.90106623     0.07600
Br2214     Br  0.21603175  0.10484361  0.89696040    -0.03000
C2215       C  0.07595780  0.06948627  0.93004594    -0.09600
C2216       C  0.10004202  0.06879242  0.91678127     0.06600
C2217       C  0.10026784  0.07186469  0.88906229    -0.03400
C2218       C  0.07655695  0.07434668  0.87531494    -0.07800
C2219       C  0.05256715  0.07324798  0.88861264     0.05700
C2220       C  0.05237887  0.07132775  0.91628225    -0.02900
Br2221     Br  0.02057692  0.07149742  0.93660963    -0.02600
H2222       H  0.07530699  0.06757241  0.95124040     0.09600
H2223       H  0.07682395  0.07628413  0.85409953     0.07600
Br2224     Br  0.13194171  0.07307259  0.86859513    -0.03000
C2225       C  0.07383033  0.82211941  0.90549095    -0.09600
C2226       C  0.06442014  0.84698402  0.91240560     0.06600
C2227       C  0.05970685  0.86571967  0.89249235    -0.03400
C2228       C  0.06470678  0.85944291  0.86628614    -0.07800
C2229       C  0.07459859  0.83472933  0.85919431     0.05700
C2230       C  0.07870191  0.81570410  0.87918523    -0.02900
Br2231     Br  0.09025113  0.78040444  0.87243488    -0.02600
H2232       H  0.07718020  0.80750880  0.92063219     0.09600
H2233       H  0.06173385  0.87445313  0.85147511     0.07600
Br2234     Br  0.04874172  0.90109817  0.89983386    -0.03000
C2235       C  0.08247189  0.95836756  0.97482145    -0.09600
C2236       C  0.09379343  0.93386846  0.96960130     0.06600
C2237       C  0.12008237  0.93265032  0.96074729    -0.03400
C2238       C  0.13484657  0.95565212  0.95860191    -0.07800
C2239       C  0.12395451  0.97995689  0.96530121     0.05700
C2240       C  0.09726400  0.98132692  0.97278846    -0.02900
Br2241     Br  0.07941772  0.01389070  0.97944204    -0.02600
H2242       H  0.06222730  0.95963633  0.98125848     0.09600
H2243       H  0.15508529  0.95448611  0.95213254     0.07600
Br2244     Br  0.13680656  0.90044237  0.95042767    -0.03000
C2245       C  0.11217584  0.96941251  0.21373936    -0.09600
C2246       C  0.10191862  0.96400014  0.18881559     0.06600
C2247       C  0.11907437  0.95867288  0.16778377    -0.03400
C2248       C  0.14607686  0.95733499  0.17226142    -0.07800
C2249       C  0.15634391  0.96143848  0.19747855     0.05700
C2250       C  0.13924538  0.96837819  0.21819189    -0.02900
Br2251     Br  0.15201073  0.97763446  0.25250536    -0.02600
H2252       H  0.09906393  0.97482205  0.22976036     0.09600
H2253       H  0.15901655  0.95177367  0.15616924     0.07600
Br2254     Br  0.10641150  0.95192519  0.13288372    -0.03000
C2255       C  0.00122987  0.02779067  0.24638588    -0.09600
C2256       C  0.01504835  0.00426052  0.24310230     0.06600
C2257       C  0.02758936  0.99290412  0.26514985    -0.03400
C2258       C  0.02717675  0.00576568  0.28953359    -0.07800
C2259       C  0.01433066  0.02998695  0.29264864     0.05700
C2260       C  0.00037028  0.04045035  0.27085443    -0.02900
Br2261     Br  0.97926748  0.07168375  0.27290409    -0.02600
H2262       H  0.99103793  0.03640352  0.22978555     0.09600
H2263       H  0.03813216  0.99739220  0.30575763     0.07600
Br2264     Br  0.04790167  0.96122872  0.26260609    -0.03000
C2265       C  0.05243194  0.90888620  0.10481741    -0.09600
C2266       C  0.03970852  0.93342383  0.10392377     0.06600
C2267       C  0.03001948  0.94265154  0.07970684    -0.03400
C2268       C  0.03275567  0.92719951  0.05718531    -0.07800
C2269       C  0.04526068  0.90254721  0.05804557     0.05700
C2270       C  0.05551379  0.89356906  0.08215439    -0.02900
Br2271     Br  0.07243938  0.86008772  0.08578154    -0.02600
H2272       H  0.05986044  0.90146190  0.12334603     0.09600
H2273       H  0.02499805  0.93459894  0.03878045     0.07600
Br2274     Br  0.01114815  0.97514604  0.07632705    -0.03000
C2275       C  0.83923813  0.90543061  0.05823661    -0.09600
C2276       C  0.82532406  0.92519086  0.07167183     0.06600
C2277       C  0.80563334  0.91780133  0.08964919    -0.03400
C2278       C  0.80129924  0.89123257  0.09477631    -0.07800
C2279       C  0.81609601  0.87149549  0.08227089     0.05700
C2280       C  0.83481225  0.87887572  0.06322528    -0.02900
Br2281     Br  0.85498067  0.85424082  0.04290786    -0.02600
H2282       H  0.85419176  0.91057948  0.04401182     0.09600
H2283       H  0.78646094  0.88607953  0.10911763     0.07600
Br2284     Br  0.78354184  0.94253971  0.10764484    -0.03000
C2285       C  0.94131409  0.00115883  0.14020469    -0.09600
C2286       C  0.95260968  0.97613011  0.14295013     0.06600
C2287       C  0.94241518  0.95517655  0.12778864    -0.03400
C2288       C  0.92189974  0.95981132  0.10985958    -0.07800
C2289       C  0.91118510  0.98502111  0.10689071     0.05700
C2290       C  0.92088273  0.00571233  0.12246753    -0.02900
Br2291     Br  0.90840564  0.04113577  0.11867380    -0.02600
H2292       H  0.94920487  0.01762874  0.15117092     0.09600
H2293       H  0.91430545  0.94369889  0.09818481     0.07600
Br2294     Br  0.95696706  0.92043457  0.12901747    -0.03000
C2295       C  0.93554089  0.22089571  0.15083355    -0.09600
C2296       C  0.94127020  0.20019010  0.16829678     0.06600
C2297       C  0.95393747  0.17756427  0.15834000    -0.03400
C2298       C  0.95890160  0.17554322  0.13134016    -0.07800
C2299       C  0.95160758  0.19565160  0.11384499     0.05700
C2300       C  0.94067166  0.21889026  0.12398621    -0.02900
Br2301     Br  0.93325011  0.24902481  0.10249389    -0.02600
H2302       H  0.92669519  0.23887525  0.15798725     0.09600
H2303       H  0.96771814  0.15767221  0.12386235     0.07600
Br2304     Br  0.96426612  0.14825792  0.17980043    -0.03000
C2305       C  0.94050240  0.13900094  0.95437956    -0.09600
C2306       C  0.96066507  0.15629029  0.96186319     0.06600
C2307       C  0.98309345  0.15856417  0.94593802    -0.03400
C2308       C  0.98561767  0.14284252  0.92357842    -0.07800
C2309       C  0.96632469  0.12422791  0.91702306     0.05700
C2310       C  0.94327830  0.12279995  0.93226045    -0.02900
Br2311     Br  0.91500245  0.09947226  0.92350964    -0.02600
H2312       H  0.92319900  0.13700150  0.96661052     0.09600
H2313       H  0.00324014  0.14451254  0.91176137     0.07600
Br2314     Br  0.01085358  0.18274016  0.95413406    -0.03000
C2315       C  0.90485448  0.07051420  0.03308073    -0.09600
C2316       C  0.88268890  0.07013150  0.04964119     0.06600
C2317       C  0.87640545  0.09303685  0.06403492    -0.03400
C2318       C  0.89255924  0.11520820  0.06205535    -0.07800
C2319       C  0.91511165  0.11499359  0.04620531     0.05700
C2320       C  0.92097097  0.09253800  0.03130064    -0.02900
Br2321     Br  0.94974444  0.09124625  0.00692597    -0.02600
H2322       H  0.91007192  0.05340889  0.02157827     0.09600
H2323       H  0.88757351  0.13269843  0.07309369     0.07600
Br2324     Br  0.84605376  0.09591195  0.08622986    -0.03000
C2325       C  0.67381473  0.91082409  0.95689345    -0.09600
C2326       C  0.68842763  0.92868173  0.94162944     0.06600
C2327       C  0.70716899  0.91884385  0.92385642    -0.03400
C2328       C  0.71037964  0.89170023  0.92128264    -0.07800
C2329       C  0.69527504  0.87385580  0.93614874     0.05700
C2330       C  0.67704388  0.88378045  0.95441158    -0.02900
Br2331     Br  0.65626587  0.86201468  0.97719744    -0.02600
H2332       H  0.65933239  0.91787291  0.97079706     0.09600
H2333       H  0.72465327  0.88455274  0.90721542     0.07600
Br2334     Br  0.72954409  0.94105211  0.90316111    -0.03000
C2335       C  0.75790661  0.00851861  0.97580143    -0.09600
C2336       C  0.73512211  0.01565607  0.98972512     0.06600
C2337       C  0.73750115  0.02236416  0.01645787    -0.03400
C2338       C  0.76202406  0.02088227  0.02884770    -0.07800
C2339       C  0.78472909  0.01249975  0.01532046     0.05700
C2340       C  0.78243544  0.00671103  0.98821026    -0.02900
Br2341     Br  0.81131899  0.99532398  0.96678320    -0.02600
H2342       H  0.75650185  0.00323063  0.95520201     0.09600
H2343       H  0.76308563  0.02583960  0.04953589     0.07600
Br2344     Br  0.70823417  0.03421850  0.03705391    -0.03000
C2345       C  0.55314956  0.20082842  0.89554489    -0.09600
C2346       C  0.57156912  0.21141776  0.91335173     0.06600
C2347       C  0.59203963  0.22722112  0.90337753    -0.03400
C2348       C  0.59441834  0.23074713  0.87620526    -0.07800
C2349       C  0.57691573  0.21870975  0.85845259     0.05700
C2350       C  0.55564088  0.20421345  0.86847268    -0.02900
Br2351     Br  0.52905725  0.18861890  0.84662001    -0.02600
H2352       H  0.53688157  0.18905836  0.90256793     0.09600
H2353       H  0.61076957  0.24224024  0.86890026     0.07600
Br2354     Br  0.61781643  0.24415193  0.92517111    -0.03000
C2355       C  0.64747707  0.09899318  0.95681527    -0.09600
C2356       C  0.63424785  0.07493498  0.95729096     0.06600
C2357       C  0.60678383  0.07464852  0.96102117    -0.03400
C2358       C  0.59328076  0.09800910  0.96555455    -0.07800
C2359       C  0.60653653  0.12210496  0.96660420     0.05700
C2360       C  0.63395940  0.12253502  0.96151689    -0.02900
Br2361     Br  0.65436407  0.15424601  0.96032437    -0.02600
H2362       H  0.66851385  0.09940580  0.95363903     0.09600
H2363       H  0.57229432  0.09714261  0.96894703     0.07600
Br2364     Br  0.58634939  0.04294202  0.95960330    -0.03000
C2365       C  0.64991619  0.07521445  0.17365723    -0.09600
C2366       C  0.65687199  0.08664466  0.19775886     0.06600
C2367       C  0.63675981  0.09270691  0.21610090    -0.03400
C2368       C  0.61051324  0.08841240  0.20945302    -0.07800
C2369       C  0.60368298  0.07780899  0.18505321     0.05700
C2370       C  0.62368890  0.07086984  0.16711331    -0.02900
Br2371     Br  0.61678222  0.05785663  0.13227670    -0.02600
H2372       H  0.66486928  0.07061742  0.15924082     0.09600
H2373       H  0.59529469  0.09348928  0.22343671     0.07600
Br2374     Br  0.64294354  0.10688341  0.25061722    -0.03000
C2375       C  0.53560519  0.15569566  0.07311982    -0.09600
C2376       C  0.55902223  0.15279709  0.05902067     0.06600
C2377       C  0.57688508  0.13293084  0.06630157    -0.03400
C2378       C  0.57088000  0.11608291  0.08726301    -0.07800
C2379       C  0.54730588  0.11892982  0.10123972     0.05700
C2380       C  0.52968654  0.13913816  0.09413759    -0.02900
Br2381     Br  0.49606614  0.14358974  0.11071344    -0.02600
H2382       H  0.52135269  0.17032992  0.06707719     0.09600
H2383       H  0.58455720  0.10065513  0.09255699     0.07600
Br2384     Br  0.60844813  0.12656258  0.04674390    -0.03000
C2385       C  0.37050121  0.93146021  0.82040377    -0.09600
C2386       C  0.35303240  0.95031557  0.83051212     0.06600
C2387       C  0.36321730  0.97232474  0.84371394    -0.03400
C2388       C  0.39038500  0.97505431  0.84649299    -0.07800
C2389       C  0.40798354  0.95602825  0.83663382     0.05700
C2390       C  0.39762678  0.93392342  0.82345945    -0.02900
Br2391     Br  0.41868334  0.90580324  0.80964166    -0.02600
H2392       H  0.36297149  0.91421298  0.81044947     0.09600
H2393       H  0.39769800  0.99223798  0.85668622     0.07600
Br2394     Br  0.34134763  0.99976637  0.85753832    -0.03000
C2395       C  0.56860277  0.95686729  0.89422111    -0.09600
C2396       C  0.55883450  0.97612893  0.87708577     0.06600
C2397       C  0.57217654  0.00017382  0.87464534    -0.03400
C2398       C  0.59454771  0.00495235  0.88982648    -0.07800
C2399       C  0.60342382  0.98631233  0.90814164     0.05700
C2400       C  0.59058468  0.96191777  0.90998323    -0.02900
Br2401     Br  0.60240416  0.93470287  0.93328169    -0.02600
H2402       H  0.55850211  0.93865201  0.89631133     0.09600
H2403       H  0.60454458  0.02357426  0.88792220     0.07600
Br2404     Br  0.56040556  0.02713353  0.85101372    -0.03000
C2405       C  0.30346761  0.15095493  0.09478753    -0.09600
C2406       C  0.31813160  0.16907471  0.07981922     0.06600
C2407       C  0.33382051  0.15966232  0.05911040    -0.03400
C2408       C  0.33558197  0.13271945  0.05471416    -0.07800
C2409       C  0.32206536  0.11449784  0.07056980     0.05700
C2410       C  0.30524029  0.12393863  0.09036448    -0.02900
Br2411     Br  0.28386016  0.10139775  0.11175851    -0.02600
H2412       H  0.29082496  0.15774552  0.11050304     0.09600
H2413       H  0.34841545  0.12602813  0.03911240     0.07600
Br2414     Br  0.35315629  0.18206515  0.03573499    -0.03000
C2415       C  0.27670818  0.02097181  0.99860546    -0.09600
C2416       C  0.27748211  0.02350235  0.02602502     0.06600
C2417       C  0.25342979  0.02619399  0.03978266    -0.03400
C2418       C  0.22971791  0.02782632  0.02583291    -0.07800
C2419       C  0.22914529  0.02691892  0.99822947     0.05700
C2420       C  0.25311462  0.02268096  0.98465226    -0.02900
Br2421     Br  0.25629480  0.02119714  0.94698678    -0.02600
H2422       H  0.29484199  0.01876737  0.98769687     0.09600
H2423       H  0.21168472  0.03087522  0.03669256     0.07600
Br2424     Br  0.25119962  0.03029468  0.07729317    -0.03000
C2425       C  0.43496230  0.06339063  0.08646838    -0.09600
C2426       C  0.41097959  0.06385355  0.09987787     0.06600
C2427       C  0.41075943  0.07039077  0.12696811    -0.03400
C2428       C  0.43448661  0.07376750  0.14048285    -0.07800
C2429       C  0.45843771  0.07085528  0.12739096     0.05700
C2430       C  0.45854783  0.06688709  0.09991539    -0.02900
Br2431     Br  0.49027727  0.06645743  0.07948398    -0.02600
H2432       H  0.43551556  0.05929399  0.06557944     0.09600
H2433       H  0.43423005  0.07770355  0.16141463     0.07600
Br2434     Br  0.37896546  0.07552317  0.14661883    -0.03000
C2435       C  0.41906946  0.83484392  0.11627689    -0.09600
C2436       C  0.44482766  0.84113077  0.10889013     0.06600
C2437       C  0.46405705  0.84502050  0.12870123    -0.03400
C2438       C  0.45702866  0.84290476  0.15516311    -0.07800
C2439       C  0.43127694  0.83666496  0.16227081     0.05700
C2440       C  0.41214088  0.83275561  0.14260619    -0.02900
Br2441     Br  0.37572488  0.82638775  0.15036414    -0.02600
H2442       H  0.40387806  0.83240633  0.10153191     0.09600
H2443       H  0.47186225  0.84554360  0.17024307     0.07600
Br2444     Br  0.50035961  0.85235791  0.12148405    -0.03000
C2445       C  0.48556529  0.88712409  0.94677396    -0.09600
C2446       C  0.46254285  0.89042473  0.96136026     0.06600
C2447       C  0.44438236  0.90996953  0.95392676    -0.03400
C2448       C  0.44989754  0.92635226  0.93252379    -0.07800
C2449       C  0.47303929  0.92308292  0.91796841     0.05700
C2450       C  0.49069683  0.90285533  0.92494125    -0.02900
Br2451     Br  0.52280947  0.89642325  0.90635532    -0.02600
H2452       H  0.49987425  0.87251298  0.95271825     0.09600
H2453       H  0.43595286  0.94148007  0.92705787     0.07600
Br2454     Br  0.41272718  0.91623640  0.97337579    -0.03000
C2455       C  0.42496462  0.95002410  0.04212405    -0.09600
C2456       C  0.41532330  0.92582228  0.05073792     0.06600
C2457       C  0.39071115  0.92486594  0.06355310    -0.03400
C2458       C  0.37558865  0.94773849  0.06611005    -0.07800
C2459       C  0.38456256  0.97170321  0.05597452     0.05700
C2460       C  0.40997493  0.97283133  0.04465047    -0.02900
Br2461     Br  0.42621167  0.00495089  0.03319398    -0.02600
H2462       H  0.44401117  0.95111664  0.03269999     0.09600
H2463       H  0.35658605  0.94668208  0.07560506     0.07600
Br2464     Br  0.37731577  0.89315202  0.07895149    -0.03000
C2465       C  0.66973480  0.16774367  0.57289231    -0.09600
C2466       C  0.69577955  0.17502138  0.57823956     0.06600
C2467       C  0.71553158  0.15544537  0.57837076    -0.03400
C2468       C  0.70862610  0.12910375  0.57534545    -0.07800
C2469       C  0.68246605  0.12185859  0.57128961     0.05700
C2470       C  0.66296828  0.14142258  0.56932614    -0.02900
Br2471     Br  0.62648175  0.13323859  0.56417248    -0.02600
H2472       H  0.65431113  0.18240963  0.57273747     0.09600
H2473       H  0.72380911  0.11418323  0.57591538     0.07600
Br2474     Br  0.75235047  0.16308614  0.58172961    -0.03000
C2475       C  0.75500986  0.03265886  0.54250704    -0.09600
C2476       C  0.73239773  0.03455671  0.52659760     0.06600
C2477       C  0.73564108  0.03503825  0.49902494    -0.03400
C2478       C  0.76092702  0.03514492  0.48824551    -0.07800
C2479       C  0.78353172  0.03472941  0.50423717     0.05700
C2480       C  0.78029006  0.03269105  0.53169778    -0.02900
Br2481     Br  0.80928405  0.02933166  0.55565540    -0.02600
H2482       H  0.75315214  0.03177467  0.56370831     0.09600
H2483       H  0.76283765  0.03632421  0.46705991     0.07600
Br2484     Br  0.70674976  0.03531017  0.47468502    -0.03000
C2485       C  0.40102236  0.11376400  0.70443922    -0.09600
C2486       C  0.40938096  0.08799750  0.69944602     0.06600
C2487       C  0.39086182  0.06726998  0.70088717    -0.03400
C2488       C  0.36440258  0.07282734  0.70542997    -0.07800
C2489       C  0.35605150  0.09862013  0.70948005     0.05700
C2490       C  0.37460697  0.11919441  0.70949002    -0.02900
Br2491     Br  0.36466481  0.15531827  0.71396820    -0.02600
H2492       H  0.41483277  0.12989723  0.70330413     0.09600
H2493       H  0.35029394  0.05691051  0.70603853     0.07600
Br2494     Br  0.40022439  0.03082207  0.69787228    -0.03000
C2495       C  0.48025214  0.00950139  0.73918444    -0.09600
C2496       C  0.49527168  0.03247789  0.73658629     0.06600
C2497       C  0.51000794  0.04136546  0.75851585    -0.03400
C2498       C  0.50816476  0.02818319  0.78265508    -0.07800
C2499       C  0.49252561  0.00571474  0.78521632     0.05700
C2500       C  0.47886040  0.99612055  0.76309531    -0.02900
Br2501     Br  0.45627799  0.96593754  0.76485415    -0.02600
H2502       H  0.46863663  0.00238184  0.72281854     0.09600
H2503       H  0.51931165  0.03524451  0.79936885     0.07600
Br2504     Br  0.53390310  0.07049963  0.75674660    -0.03000
C2505       C  0.59896988  0.06574630  0.63142720    -0.09600
C2506       C  0.59682247  0.05919377  0.60455573     0.06600
C2507       C  0.57155967  0.05561534  0.59365703    -0.03400
C2508       C  0.54941062  0.05865356  0.60951538    -0.07800
C2509       C  0.55161814  0.06526286  0.63623961     0.05700
C2510       C  0.57669043  0.06881378  0.64723923    -0.02900
Br2511     Br  0.58168952  0.07592046  0.68395792    -0.02600
H2512       H  0.61813364  0.06828095  0.64034615     0.09600
H2513       H  0.53017355  0.05585604  0.60080187     0.07600
Br2514     Br  0.56547045  0.04517889  0.55785492    -0.03000
C2515       C  0.30069157  0.88715799  0.41783693    -0.09600
C2516       C  0.31098724  0.86857094  0.43557042     0.06600
C2517       C  0.32577072  0.87732792  0.45718877    -0.03400
C2518       C  0.33087922  0.90403482  0.46005951    -0.07800
C2519       C  0.32171083  0.92269091  0.44167937     0.05700
C2520       C  0.30590897  0.91398041  0.42060883    -0.02900
Br2521     Br  0.29121338  0.93703770  0.39457038    -0.02600
H2522       H  0.28913457  0.88072953  0.40112533     0.09600
H2523       H  0.34261680  0.91007537  0.47677624     0.07600
Br2524     Br  0.33903092  0.85415382  0.48392380    -0.03000
C2525       C  0.28220899  0.99592180  0.51969933    -0.09600
C2526       C  0.28454702  0.01028529  0.49628818     0.06600
C2527       C  0.26256302  0.02496917  0.48735866    -0.03400
C2528       C  0.23883073  0.02414917  0.50133611    -0.07800
C2529       C  0.23659930  0.00934474  0.52441096     0.05700
C2530       C  0.25861150  0.99522409  0.53359980    -0.02900
Br2531     Br  0.25701713  0.97242825  0.56361350    -0.02600
H2532       H  0.29848516  0.98412967  0.52671431     0.09600
H2533       H  0.22210066  0.03525034  0.49425465     0.07600
Br2534     Br  0.26343957  0.04706479  0.45674535    -0.03000
C2535       C  0.45053834  0.22101418  0.40359674    -0.09600
C2536       C  0.45010816  0.19498496  0.41236520     0.06600
C2537       C  0.44722161  0.17441447  0.39409080    -0.03400
C2538       C  0.44413276  0.18015635  0.36744473    -0.07800
C2539       C  0.44373159  0.20624770  0.35860585     0.05700
C2540       C  0.44764961  0.22680334  0.37687889    -0.02900
Br2541     Br  0.45018198  0.26299412  0.36653679    -0.02600
H2542       H  0.45332830  0.23685628  0.41756002     0.09600
H2543       H  0.44072168  0.16418005  0.35377719     0.07600
Br2544     Br  0.44498933  0.13829735  0.40477020    -0.03000
C2545       C  0.44026008  0.13385103  0.57102560    -0.09600
C2546       C  0.46055197  0.15041748  0.56253304     0.06600
C2547       C  0.48337516  0.15300712  0.57795014    -0.03400
C2548       C  0.48591907  0.13852223  0.60111393    -0.07800
C2549       C  0.46630932  0.12078162  0.60887063     0.05700
C2550       C  0.44308332  0.11882387  0.59389709    -0.02900
Br2551     Br  0.41461430  0.09625766  0.60390187    -0.02600
H2552       H  0.42271925  0.13159470  0.55914165     0.09600
H2553       H  0.50378992  0.14035524  0.61257124     0.07600
Br2554     Br  0.51169382  0.17585899  0.56804714    -0.03000
C2555       C  0.39132599  0.11296320  0.45810759    -0.09600
C2556       C  0.41485600  0.11112219  0.47253055     0.06600
C2557       C  0.42284535  0.08654071  0.48223473    -0.03400
C2558       C  0.40749274  0.06445641  0.47735558    -0.07800
C2559       C  0.38388565  0.06604258  0.46295128     0.05700
C2560       C  0.37589399  0.09068391  0.45310311    -0.02900
Br2561     Br  0.34384012  0.09556722  0.43383713    -0.02600
H2562       H  0.38492860  0.13183436  0.45066609     0.09600
H2563       H  0.41417901  0.04581692  0.48511659     0.07600
Br2564     Br  0.45339165  0.08195562  0.50403619    -0.03000
C2565       C  0.62006612  0.96853716  0.34349775    -0.09600
C2566       C  0.60233163  0.95576926  0.32654096     0.06600
C2567       C  0.61234306  0.94033633  0.30589043    -0.03400
C2568       C  0.63942206  0.93718916  0.30323074    -0.07800
C2569       C  0.65720659  0.94898534  0.32087463     0.05700
C2570       C  0.64719356  0.96532027  0.34094708    -0.02900
Br2571     Br  0.66883437  0.98378259  0.36582267    -0.02600
H2572       H  0.61279424  0.98068186  0.35939342     0.09600
H2573       H  0.64650823  0.92488120  0.28738696     0.07600
Br2574     Br  0.59055416  0.92336669  0.28021164    -0.03000
C2575       C  0.50448045  0.02516962  0.27332976    -0.09600
C2576       C  0.51364345  0.99923274  0.27396590     0.06600
C2577       C  0.52044272  0.98701087  0.24994027    -0.03400
C2578       C  0.51996620  0.00141221  0.22642220    -0.07800
C2579       C  0.51222163  0.02790413  0.22596552     0.05700
C2580       C  0.50312537  0.03932229  0.24975091    -0.02900
Br2581     Br  0.48822904  0.07395304  0.25206614    -0.02600
H2582       H  0.49833995  0.03459181  0.29141198     0.09600
H2583       H  0.52666745  0.99201419  0.20854063     0.07600
Br2584     Br  0.53244945  0.95137642  0.24785674    -0.03000
C2585       C  0.44047276  0.99490101  0.37181617    -0.09600
C2586       C  0.45242902  0.97008668  0.37126393     0.06600
C2587       C  0.44228242  0.94984520  0.38729725    -0.03400
C2588       C  0.42114072  0.95505131  0.40415523    -0.07800
C2589       C  0.40972159  0.98009118  0.40503952     0.05700
C2590       C  0.41928378  0.99999997  0.38838423    -0.02900
Br2591     Br  0.40579314  0.03524690  0.38926055    -0.02600
H2592       H  0.44841154  0.01079399  0.36007659     0.09600
H2593       H  0.41371000  0.93957223  0.41673900     0.07600
Br2594     Br  0.45791198  0.91557649  0.38886806    -0.03000
C2595       C  0.55293989  0.84696708  0.62448608    -0.09600
C2596       C  0.57292305  0.84257385  0.60582085     0.06600
C2597       C  0.59730086  0.83253737  0.61456528    -0.03400
C2598       C  0.60156265  0.82870599  0.64145314    -0.07800
C2599       C  0.58203776  0.83459903  0.66002087     0.05700
C2600       C  0.55725590  0.84300424  0.65129217    -0.02900
Br2601     Br  0.52825190  0.84807851  0.67485701    -0.02600
H2602       H  0.53376601  0.85385592  0.61829923     0.09600
H2603       H  0.62062272  0.82176840  0.64797164     0.07600
Br2604     Br  0.62609414  0.82452318  0.59154028    -0.03000
C2605       C  0.55115218  0.90167899  0.41263259    -0.09600
C2606       C  0.53825747  0.92609458  0.41257260     0.06600
C2607       C  0.52806442  0.93586403  0.43636526    -0.03400
C2608       C  0.53171268  0.92173707  0.45966345    -0.07800
C2609       C  0.54527604  0.89762671  0.45998148     0.05700
C2610       C  0.55476043  0.88745102  0.43597020    -0.02900
Br2611     Br  0.57147077  0.85376230  0.43329028    -0.02600
H2612       H  0.55850915  0.89359179  0.39436774     0.09600
H2613       H  0.52392271  0.92984079  0.47773311     0.07600
Br2614     Br  0.50725632  0.96729905  0.43806141    -0.03000
C2615       C  0.63805551  0.95983088  0.53295745    -0.09600
C2616       C  0.63644843  0.97273295  0.55724365     0.06600
C2617       C  0.61888377  0.96333241  0.57648746    -0.03400
C2618       C  0.60270039  0.94182911  0.57079935    -0.07800
C2619       C  0.60395586  0.92935072  0.54624306     0.05700
C2620       C  0.62213815  0.93825339  0.52737012    -0.02900
Br2621     Br  0.62429237  0.92343410  0.49269130    -0.02600
H2622       H  0.65100249  0.96731158  0.51779539     0.09600
H2623       H  0.58893854  0.93495799  0.58551369     0.07600
Br2624     Br  0.61431121  0.98060535  0.60972232    -0.03000
C2625       C  0.30368351  0.41622092  0.57971262    -0.09600
C2626       C  0.32950836  0.42330976  0.57374193     0.06600
C2627       C  0.34866354  0.40370148  0.57002285    -0.03400
C2628       C  0.34195254  0.37742906  0.57317317    -0.07800
C2629       C  0.31637944  0.37014847  0.58026269     0.05700
C2630       C  0.29684123  0.38983158  0.58269762    -0.02900
Br2631     Br  0.26046886  0.38238962  0.58952844    -0.02600
H2632       H  0.28876804  0.43125357  0.58186030     0.09600
H2633       H  0.35727233  0.36275931  0.57148176     0.07600
Br2634     Br  0.38495629  0.41160574  0.56322469    -0.03000
C2635       C  0.64329650  0.42477483  0.71308390    -0.09600
C2636       C  0.66025579  0.44606038  0.70861234     0.06600
C2637       C  0.64961982  0.47073509  0.70246150    -0.03400
C2638       C  0.62256610  0.47334315  0.69904246    -0.07800
C2639       C  0.60554631  0.45163340  0.70147126     0.05700
C2640       C  0.61613526  0.42725993  0.70948333    -0.02900
Br2641     Br  0.59533666  0.39614534  0.71406212    -0.02600
H2642       H  0.65134035  0.40574588  0.71822726     0.09600
H2643       H  0.61491598  0.49247314  0.69370822     0.07600
Br2644     Br  0.67102712  0.50162056  0.69917853    -0.03000
C2645       C  0.46470996  0.47346177  0.61041993    -0.09600
C2646       C  0.46248110  0.47000565  0.63771929     0.06600
C2647       C  0.43744363  0.47022407  0.64923801    -0.03400
C2648       C  0.41526218  0.47488234  0.63353928    -0.07800
C2649       C  0.41744331  0.47903533  0.60617363     0.05700
C2650       C  0.44263202  0.47764356  0.59458205    -0.02900
Br2651     Br  0.44897464  0.48241646  0.55764488    -0.02600
H2652       H  0.48393056  0.47306338  0.60131092     0.09600
H2653       H  0.39621592  0.47563697  0.64294248     0.07600
Br2654     Br  0.43272793  0.46632392  0.68643664    -0.03000
C2655       C  0.56075932  0.35291899  0.40040657    -0.09600
C2656       C  0.57445339  0.33684921  0.41827411     0.06600
C2657       C  0.59007236  0.31626826  0.40844269    -0.03400
C2658       C  0.59250209  0.31290927  0.38128315    -0.07800
C2659       C  0.57966457  0.32972123  0.36336578     0.05700
C2660       C  0.56313465  0.34961457  0.37331314    -0.02900
Br2661     Br  0.54310048  0.37322153  0.35164086    -0.02600
H2662       H  0.54840032  0.36871940  0.40751021     0.09600
H2663       H  0.60505180  0.29725536  0.37421141     0.07600
Br2664     Br  0.60805777  0.29165706  0.43068510    -0.03000
C2665       C  0.49999160  0.29002578  0.51054626    -0.09600
C2666       C  0.52709618  0.28960017  0.50559482     0.06600
C2667       C  0.53939398  0.26508388  0.50107261    -0.03400
C2668       C  0.52434053  0.24217375  0.50001774    -0.07800
C2669       C  0.49699359  0.24268648  0.50356969     0.05700
C2670       C  0.48495622  0.26698383  0.50994310    -0.02900
Br2671     Br  0.44821369  0.27085671  0.51765101    -0.02600
H2672       H  0.49029105  0.30853386  0.51457924     0.09600
H2673       H  0.53418101  0.22383805  0.49558347     0.07600
Br2674     Br  0.57627420  0.26106434  0.49407832    -0.03000
C2675       C  0.53375340  0.38684452  0.57777297    -0.09600
C2676       C  0.55933152  0.38420992  0.56787587     0.06600
C2677       C  0.58029154  0.39658242  0.58120245    -0.03400
C2678       C  0.57506690  0.41260210  0.60303563    -0.07800
C2679       C  0.54929614  0.41586121  0.61219338     0.05700
C2680       C  0.52866062  0.40222816  0.59984335    -0.02900
Br2681     Br  0.49281972  0.40546967  0.61110995    -0.02600
H2682       H  0.51743035  0.37754233  0.56771499     0.09600
H2683       H  0.59112018  0.42260915  0.61282832     0.07600
Br2684     Br  0.61598279  0.39386621  0.56948925    -0.03000
C2685       C  0.70827448  0.65352945  0.43512696    -0.09600
C2686       C  0.68916497  0.67171291  0.44364602     0.06600
C2687       C  0.66702939  0.66217297  0.45733940    -0.03400
C2688       C  0.66421276  0.63513777  0.46143468    -0.07800
C2689       C  0.68291602  0.61707047  0.45205527     0.05700
C2690       C  0.70536017  0.62658982  0.43913390    -0.02900
Br2691     Br  0.73330944  0.60416397  0.42737625    -0.02600
H2692       H  0.72571299  0.66017251  0.42492109     0.09600
H2693       H  0.64684004  0.62814295  0.47154100     0.07600
Br2694     Br  0.63959040  0.68437292  0.47063476    -0.03000
C2695       C  0.62775860  0.42984499  0.49714462    -0.09600
C2696       C  0.60953221  0.42142038  0.47824662     0.06600
C2697       C  0.60756530  0.43505411  0.45422424    -0.03400
C2698       C  0.62291908  0.45749871  0.44998868    -0.07800
C2699       C  0.64003852  0.46674698  0.46957139     0.05700
C2700       C  0.64271030  0.45248303  0.49313763    -0.02900
Br2701     Br  0.66660491  0.46308972  0.52037683    -0.02600
H2702       H  0.62989349  0.41913763  0.51541955     0.09600
H2703       H  0.62062207  0.46840188  0.43183288     0.07600
Br2704     Br  0.58489574  0.42334326  0.42642552    -0.03000
C2705       C  0.38724725  0.56844774  0.35072042    -0.09600
C2706       C  0.40549415  0.58745986  0.34206527     0.06600
C2707       C  0.39607853  0.60998478  0.32894799    -0.03400
C2708       C  0.36921335  0.61245788  0.32404847    -0.07800
C2709       C  0.35125877  0.59319415  0.33236864     0.05700
C2710       C  0.36042047  0.57119661  0.34617826    -0.02900
Br2711     Br  0.33766932  0.54356020  0.35807558    -0.02600
H2712       H  0.39376734  0.55105124  0.36110170     0.09600
H2713       H  0.36224139  0.62979838  0.31382763     0.07600
Br2714     Br  0.41814054  0.63835231  0.31748354    -0.03000
C2715       C  0.57563243  0.56613203  0.38038772    -0.09600
C2716       C  0.55162586  0.56187254  0.39301387     0.06600
C2717       C  0.55153560  0.55464974  0.41987284    -0.03400
C2718       C  0.57515833  0.55128526  0.43332410    -0.07800
C2719       C  0.59929507  0.55473414  0.42064121     0.05700
C2720       C  0.59940726  0.56241216  0.39380434    -0.02900
Br2721     Br  0.63097945  0.56899686  0.37423568    -0.02600
H2722       H  0.57590535  0.57195871  0.35990764     0.09600
H2723       H  0.57458138  0.54559552  0.45383704     0.07600
Br2724     Br  0.51988518  0.55030634  0.44002357    -0.03000
C2725       C  0.44787060  0.72619245  0.62518942    -0.09600
C2726       C  0.44491575  0.70050596  0.61598963     0.06600
C2727       C  0.43969533  0.67994742  0.63370077    -0.03400
C2728       C  0.43667096  0.68543623  0.66032641    -0.07800
C2729       C  0.43886199  0.71123998  0.66957167     0.05700
C2730       C  0.44517481  0.73168157  0.65192524    -0.02900
Br2731     Br  0.45171057  0.76704069  0.66335929    -0.02600
H2732       H  0.45274200  0.74186068  0.61164076     0.09600
H2733       H  0.43157130  0.66965445  0.67365587     0.07600
Br2734     Br  0.43500184  0.64431004  0.62230476    -0.03000
C2735       C  0.47816340  0.77249116  0.52336413    -0.09600
C2736       C  0.49320386  0.74966897  0.52794568     0.06600
C2737       C  0.52079089  0.75221819  0.52991952    -0.03400
C2738       C  0.53241106  0.77694739  0.52762490    -0.07800
C2739       C  0.51735456  0.79978684  0.52381872     0.05700
C2740       C  0.48988302  0.79734563  0.52150426    -0.02900
Br2741     Br  0.46732782  0.82691130  0.51528847    -0.02600
H2742       H  0.45698986  0.77116557  0.52173288     0.09600
H2743       H  0.55355033  0.77834993  0.52971534     0.07600
Br2744     Br  0.54430367  0.72328621  0.53600663    -0.03000
C2745       C  0.44468225  0.61827624  0.43823127    -0.09600
C2746       C  0.46955372  0.61618907  0.42668792     0.06600
C2747       C  0.49035075  0.63176240  0.43618649    -0.03400
C2748       C  0.48617120  0.64879169  0.45720887    -0.07800
C2749       C  0.46136511  0.65096230  0.46894446     0.05700
C2750       C  0.44037495  0.63562204  0.45917037    -0.02900
Br2751     Br  0.40604649  0.63590610  0.47475418    -0.02600
H2752       H  0.42851918  0.60660041  0.43075362     0.09600
H2753       H  0.50261070  0.65994511  0.46489522     0.07600
Br2754     Br  0.52528838  0.62940616  0.42214710    -0.03000
C2755       C  0.39175659  0.61534599  0.56927460    -0.09600
C2756       C  0.41458059  0.61524965  0.55377876     0.06600
C2757       C  0.42213655  0.59206656  0.54087958    -0.03400
C2758       C  0.40688002  0.56956986  0.54352046    -0.07800
C2759       C  0.38407337  0.56934843  0.55913997     0.05700
C2760       C  0.37667923  0.59253323  0.57240291    -0.02900
Br2761     Br  0.34603066  0.59470972  0.59420478    -0.02600
H2762       H  0.38572911  0.63322919  0.57911755     0.09600
H2763       H  0.41315169  0.55197924  0.53331302     0.07600
Br2764     Br  0.45210018  0.59021647  0.51799024    -0.03000
C2765       C  0.66848290  0.40667098  0.06556477    -0.09600
C2766       C  0.68530641  0.42416127  0.07893118     0.06600
C2767       C  0.70609125  0.41379227  0.09396411    -0.03400
C2768       C  0.70892404  0.38662971  0.09620161    -0.07800
C2769       C  0.69153005  0.36904577  0.08364521     0.05700
C2770       C  0.67139055  0.37943716  0.06770069    -0.02900
Br2771     Br  0.64730288  0.35802685  0.04805130    -0.02600
H2772       H  0.65255670  0.41418363  0.05359120     0.09600
H2773       H  0.72482722  0.37930783  0.10831488     0.07600
Br2774     Br  0.73191179  0.43521397  0.11131126    -0.03000
C2775       C  0.55581802  0.71116744  0.15340566    -0.09600
C2776       C  0.58098890  0.71765609  0.16229635     0.06600
C2777       C  0.60155270  0.72059785  0.14391965    -0.03400
C2778       C  0.59691740  0.71557682  0.11731755    -0.07800
C2779       C  0.57199038  0.70779967  0.10850995     0.05700
C2780       C  0.55101984  0.70670207  0.12674688    -0.02900
Br2781     Br  0.51518202  0.70007497  0.11680611    -0.02600
H2782       H  0.53976828  0.70965039  0.16728181     0.09600
H2783       H  0.61320641  0.71659063  0.10368833     0.07600
Br2784     Br  0.63695882  0.72896142  0.15405047    -0.03000
C2785       C  0.49635592  0.74526134  0.03310518    -0.09600
C2786       C  0.52023279  0.74301065  0.01943948     0.06600
C2787       C  0.52965929  0.76525593  0.00555193    -0.03400
C2788       C  0.51615311  0.78924846  0.00700245    -0.07800
C2789       C  0.49285861  0.79152912  0.02143941     0.05700
C2790       C  0.48273774  0.76911891  0.03419834    -0.02900
Br2791     Br  0.45177473  0.77054831  0.05569283    -0.02600
H2792       H  0.48878462  0.72871968  0.04412861     0.09600
H2793       H  0.52386265  0.80622372  0.99675299     0.07600
Br2794     Br  0.56042934  0.76439894  0.98375184    -0.03000
C2795       C  0.63091405  0.61156886  0.03786538    -0.09600
C2796       C  0.61140547  0.61904075  0.05582767     0.06600
C2797       C  0.60916517  0.60541603  0.07984889    -0.03400
C2798       C  0.62553446  0.58386600  0.08494435    -0.07800
C2799       C  0.64384094  0.57541794  0.06615929     0.05700
C2800       C  0.64680249  0.58974386  0.04268309    -0.02900
Br2801     Br  0.67169336  0.57963250  0.01620436    -0.02600
H2802       H  0.63306983  0.62208928  0.01947711     0.09600
H2803       H  0.62282722  0.57272172  0.10288217     0.07600
Br2804     Br  0.58429566  0.61552425  0.10628600    -0.03000
C2805       C  0.39148124  0.46238655  0.17316970    -0.09600
C2806       C  0.41011908  0.45499790  0.19215868     0.06600
C2807       C  0.40177036  0.44247415  0.21525723    -0.03400
C2808       C  0.37508611  0.43760797  0.21896303    -0.07800
C2809       C  0.35626570  0.44467976  0.19983151     0.05700
C2810       C  0.36481981  0.45718988  0.17659458    -0.02900
Br2811     Br  0.34193345  0.46699190  0.14815357    -0.02600
H2812       H  0.39778759  0.47184984  0.15515127     0.09600
H2813       H  0.36913440  0.42802439  0.23701710     0.07600
Br2814     Br  0.42555836  0.43265049  0.24290287    -0.03000
C2815       C  0.48211744  0.53502471  0.24525993    -0.09600
C2816       C  0.49218847  0.50940504  0.24331682     0.06600
C2817       C  0.50114135  0.49694093  0.26669816    -0.03400
C2818       C  0.49916774  0.50986277  0.29098444    -0.07800
C2819       C  0.48895133  0.53531633  0.29272322     0.05700
C2820       C  0.48041282  0.54793692  0.26947712    -0.02900
Br2821     Br  0.46420875  0.58205129  0.26956613    -0.02600
H2822       H  0.47480869  0.54496865  0.22790326     0.09600
H2823       H  0.50600147  0.50006393  0.30862536     0.07600
Br2824     Br  0.51665304  0.46253725  0.26756946    -0.03000
C2825       C  0.55623087  0.49926208  0.12118254    -0.09600
C2826       C  0.55648589  0.48475965  0.14474699     0.06600
C2827       C  0.58032187  0.47350247  0.15332500    -0.03400
C2828       C  0.60298947  0.47639695  0.13799320    -0.07800
C2829       C  0.60230100  0.49014470  0.11402672     0.05700
C2830       C  0.57874607  0.50205153  0.10591477    -0.02900
Br2831     Br  0.57640553  0.52382351  0.07512572    -0.02600
H2832       H  0.53824237  0.50825626  0.11422990     0.09600
H2833       H  0.62121831  0.46773112  0.14474264     0.07600
Br2834     Br  0.58355354  0.45503382  0.18607224    -0.03000
C2835       C  0.46590939  0.35816237  0.89655784    -0.09600
C2836       C  0.44967508  0.34545372  0.91505725     0.06600
C2837       C  0.42967006  0.32865218  0.90574966    -0.03400
C2838       C  0.42585622  0.32572370  0.87871845    -0.07800
C2839       C  0.44133260  0.33935808  0.86029352     0.05700
C2840       C  0.46188952  0.35542401  0.86952169    -0.02900
Br2841     Br  0.48536102  0.37415832  0.84667844    -0.02600
H2842       H  0.48158213  0.37100179  0.90307023     0.09600
H2843       H  0.40996839  0.31318075  0.87213036     0.07600
Br2844     Br  0.40625170  0.30941341  0.92824367    -0.03000
C2845       C  0.48630226  0.27854870  0.00974962    -0.09600
C2846       C  0.50042987  0.30199830  0.00581292     0.06600
C2847       C  0.52812089  0.30060179  0.00419332    -0.03400
C2848       C  0.54060582  0.27611351  0.00421596    -0.07800
C2849       C  0.52621235  0.25260948  0.00594485     0.05700
C2850       C  0.49884548  0.25409255  0.00991577    -0.02900
Br2851     Br  0.47741864  0.22366729  0.01604726    -0.02600
H2852       H  0.46513773  0.27903748  0.01184901     0.09600
H2853       H  0.56173419  0.27549502  0.00176319     0.07600
Br2854     Br  0.55038912  0.33097499  0.00175861    -0.03000
C2855       C  0.48881439  0.39731911  0.07613041    -0.09600
C2856       C  0.46491342  0.39877161  0.06252336     0.06600
C2857       C  0.44528682  0.41616059  0.07145025    -0.03400
C2858       C  0.44987170  0.43171601  0.09373084    -0.07800
C2859       C  0.47374302  0.43003235  0.10744378     0.05700
C2860       C  0.49328628  0.41256339  0.09851127    -0.02900
Br2861     Br  0.52721873  0.41016631  0.11491115    -0.02600
H2862       H  0.50433083  0.38462927  0.06895375     0.09600
H2863       H  0.43471839  0.44507538  0.10043608     0.07600
Br2864     Br  0.41286709  0.42096158  0.05275711    -0.03000
C2865       C  0.31179708  0.65852945  0.92489242    -0.09600
C2866       C  0.31859425  0.67625355  0.94498682     0.06600
C2867       C  0.32809313  0.66645660  0.96896763    -0.03400
C2868       C  0.33137156  0.63944093  0.97216649    -0.07800
C2869       C  0.32563642  0.62160324  0.95170505     0.05700
C2870       C  0.31531714  0.63147650  0.92790464    -0.02900
Br2871     Br  0.30673480  0.60980654  0.89818751    -0.02600
H2872       H  0.30437625  0.66585003  0.90629508     0.09600
H2873       H  0.33891685  0.63244549  0.99082433     0.07600
Br2874     Br  0.33597554  0.68873628  0.99834601    -0.03000
C2875       C  0.37461052  0.45353405  0.96176315    -0.09600
C2876       C  0.38457025  0.47741837  0.97120911     0.06600
C2877       C  0.41026478  0.47810349  0.98189729    -0.03400
C2878       C  0.42503379  0.45517191  0.98347963    -0.07800
C2879       C  0.41485734  0.43118618  0.97486148     0.05700
C2880       C  0.38942513  0.43040752  0.96371960    -0.02900
Br2881     Br  0.37437818  0.39873786  0.94982454    -0.02600
H2882       H  0.35517852  0.45280289  0.95309441     0.09600
H2883       H  0.44450980  0.45603613  0.99206811     0.07600
Br2884     Br  0.42739121  0.50969913  0.99361390    -0.03000
C2885       C  0.61472182  0.60380215  0.82790203    -0.09600
C2886       C  0.60744264  0.57870612  0.83657089     0.06600
C2887       C  0.62749531  0.56023435  0.84257357    -0.03400
C2888       C  0.65393548  0.56742073  0.84015350    -0.07800
C2889       C  0.66089897  0.59253452  0.83149405     0.05700
C2890       C  0.64098998  0.61085497  0.82546234    -0.02900
Br2891     Br  0.64817488  0.64655418  0.81543102    -0.02600
H2892       H  0.59989980  0.61849219  0.82370122     0.09600
H2893       H  0.66911717  0.55313626  0.84448161     0.07600
Br2894     Br  0.62079696  0.52474967  0.85356937    -0.03000
C2895       C  0.51938286  0.54387860  0.76616081    -0.09600
C2896       C  0.51752953  0.52921179  0.78961551     0.06600
C2897       C  0.51404429  0.50180390  0.78762575    -0.03400
C2898       C  0.51388783  0.48972143  0.76286572    -0.07800
C2899       C  0.51730741  0.50418623  0.73945158     0.05700
C2900       C  0.51936264  0.53178727  0.74137082    -0.02900
Br2901     Br  0.52239282  0.55439606  0.71129214    -0.02600
H2902       H  0.52175887  0.56500572  0.76703084     0.09600
H2903       H  0.51186238  0.46855620  0.76211636     0.07600
Br2904     Br  0.50913302  0.47952702  0.81767824    -0.03000
C2905       C  0.43715428  0.56698252  0.87815129    -0.09600
C2906       C  0.46136768  0.56595742  0.89106520     0.06600
C2907       C  0.46195865  0.56496722  0.91879331    -0.03400
C2908       C  0.43857358  0.56360449  0.93302964    -0.07800
C2909       C  0.41419809  0.56307622  0.92019190     0.05700
C2910       C  0.41363220  0.56546014  0.89234391    -0.02900
Br2911     Br  0.38177027  0.56715597  0.87208720    -0.02600
H2912       H  0.43654049  0.56831342  0.85690003     0.09600
H2913       H  0.43957030  0.56223750  0.95425883     0.07600
Br2914     Br  0.49413458  0.56626157  0.93847865    -0.03000
C2915       C  0.53442858  0.63483551  0.92490825    -0.09600
C2916       C  0.54976404  0.61221281  0.92079679     0.06600
C2917       C  0.57007559  0.60629087  0.93876975    -0.03400
C2918       C  0.57424711  0.62264354  0.96055948    -0.07800
C2919       C  0.55838024  0.64476412  0.96481814     0.05700
C2920       C  0.53842464  0.65087011  0.94680477    -0.02900
Br2921     Br  0.51592345  0.68070799  0.95166196    -0.02600
H2922       H  0.51875395  0.63976549  0.91135415     0.09600
H2923       H  0.58943705  0.61766345  0.97464976     0.07600
Br2924     Br  0.59314691  0.57681166  0.93431838    -0.03000
C2925       C  0.08527515  0.72266200  0.37945838    -0.09600
C2926       C  0.07620392  0.70348640  0.36158089     0.06600
C2927       C  0.06278889  0.68136517  0.37161139    -0.03400
C2928       C  0.05884208  0.67898665  0.39866908    -0.07800
C2929       C  0.06832266  0.69790254  0.41645752     0.05700
C2930       C  0.08163169  0.71999377  0.40658878    -0.02900
Br2931     Br  0.09457631  0.74755268  0.42886537    -0.02600
H2932       H  0.09555936  0.73988276  0.37238997     0.09600
H2933       H  0.04885539  0.66165022  0.40591932     0.07600
Br2934     Br  0.05017114  0.65287237  0.35024852    -0.03000
C2935       C  0.02952805  0.76740562  0.50873408    -0.09600
C2936       C  0.01556058  0.74378644  0.50508625     0.06600
C2937       C  0.98786123  0.74514875  0.50300925    -0.03400
C2938       C  0.97523153  0.76968353  0.50309890    -0.07800
C2939       C  0.98951735  0.79326106  0.50513612     0.05700
C2940       C  0.01692918  0.79180794  0.50879140    -0.02900
Br2941     Br  0.03845606  0.82224883  0.51462950    -0.02600
H2942       H  0.05068931  0.76711122  0.51095276     0.09600
H2943       H  0.95409497  0.77032074  0.50065296     0.07600
Br2944     Br  0.96585627  0.71468881  0.49977486    -0.03000
C2945       C  0.12451049  0.56806496  0.68520121    -0.09600
C2946       C  0.10539514  0.58149771  0.69995320     0.06600
C2947       C  0.11368936  0.59843787  0.72022357    -0.03400
C2948       C  0.14051606  0.60293007  0.72407100    -0.07800
C2949       C  0.15964729  0.59080689  0.70813660     0.05700
C2950       C  0.15131262  0.57246103  0.68905537    -0.02900
Br2951     Br  0.17495179  0.55265517  0.66729743    -0.02600
H2952       H  0.11862055  0.55457405  0.66980499     0.09600
H2953       H  0.14633215  0.61663623  0.73929525     0.07600
Br2954     Br  0.08968577  0.61567851  0.74367548    -0.03000
C2955       C  0.05795578  0.64093934  0.61107583    -0.09600
C2956       C  0.05129167  0.61412331  0.60909453     0.06600
C2957       C  0.04852979  0.60287508  0.58388618    -0.03400
C2958       C  0.05067079  0.61872575  0.56165870    -0.07800
C2959       C  0.05602359  0.64570448  0.56365638     0.05700
C2960       C  0.06071048  0.65666465  0.58859022    -0.02900
Br2961     Br  0.06910926  0.69308288  0.59312555    -0.02600
H2962       H  0.06051748  0.64986730  0.63024362     0.09600
H2963       H  0.04777692  0.60986333  0.54248928     0.07600
Br2964     Br  0.03991182  0.56659811  0.57792433    -0.03000
C2965       C  0.18571776  0.37822527  0.47101265    -0.09600
C2966       C  0.19310079  0.36944409  0.44604064     0.06600
C2967       C  0.19669410  0.38783102  0.42560728    -0.03400
C2968       C  0.19280362  0.41448794  0.43039542    -0.07800
C2969       C  0.18511633  0.42345885  0.45527667     0.05700
C2970       C  0.18193637  0.40499126  0.47591229    -0.02900
Br2971     Br  0.17345679  0.41460482  0.51145097    -0.02600
H2972       H  0.18321782  0.36422628  0.48686071     0.09600
H2973       H  0.19495763  0.42817605  0.41423402     0.07600
Br2974     Br  0.20467653  0.37770596  0.39009074    -0.03000
C2975       C  0.23553995  0.51737429  0.52742212    -0.09600
C2976       C  0.23428167  0.50988025  0.50093140     0.06600
C2977       C  0.25787913  0.50367338  0.48769830    -0.03400
C2978       C  0.28185182  0.50470711  0.50105273    -0.07800
C2979       C  0.28327196  0.51161712  0.52776058     0.05700
C2980       C  0.25962031  0.51853414  0.54084994    -0.02900
Br2981     Br  0.25807101  0.52951391  0.57696801    -0.02600
H2982       H  0.21764877  0.52234363  0.53778456     0.09600
H2983       H  0.29945045  0.49908169  0.49053915     0.07600
Br2984     Br  0.25888443  0.49111207  0.45204863    -0.03000
C2985       C  0.13949515  0.58630828  0.49271130    -0.09600
C2986       C  0.13808728  0.57278315  0.46873865     0.06600
C2987       C  0.12066672  0.58170693  0.44907583    -0.03400
C2988       C  0.10449512  0.60339351  0.45397865    -0.07800
C2989       C  0.10573043  0.61664345  0.47809498     0.05700
C2990       C  0.12370956  0.60821723  0.49742961    -0.02900
Br2991     Br  0.12582815  0.62438882  0.53150464    -0.02600
H2992       H  0.15230798  0.57922205  0.50820196     0.09600
H2993       H  0.09079522  0.60984334  0.43898185     0.07600
Br2994     Br  0.11636634  0.56366947  0.41621585    -0.03000
C2995       C  0.89174540  0.47825250  0.34384044    -0.09600
C2996       C  0.91024526  0.46128683  0.33203818     0.06600
C2997       C  0.90110003  0.44147344  0.31498738    -0.03400
C2998       C  0.87412522  0.43848706  0.31099854    -0.07800
C2999       C  0.85569618  0.45476089  0.32371509     0.05700
C3000       C  0.86480891  0.47518375  0.33988890    -0.02900
Br3001     Br  0.84182684  0.49996463  0.35664521    -0.02600
H3002       H  0.89813518  0.49395788  0.35671330     0.09600
H3003       H  0.86753027  0.42267957  0.29834238     0.07600
Br3004     Br  0.92380978  0.41763652  0.29655985    -0.03000
C3005       C  0.05408140  0.49457403  0.41201077    -0.09600
C3006       C  0.05589793  0.48194502  0.38743053     0.06600
C3007       C  0.08032418  0.47177816  0.37944541    -0.03400
C3008       C  0.10218335  0.47435356  0.39604406    -0.07800
C3009       C  0.10015177  0.48675673  0.42072167     0.05700
C3010       C  0.07578789  0.49711044  0.42853950    -0.02900
Br3011     Br  0.07118356  0.51678352  0.46045058    -0.02600
H3012       H  0.03549678  0.50256850  0.41861064     0.09600
H3013       H  0.12097522  0.46678593  0.38952754     0.07600
Br3014     Br  0.08543098  0.45578576  0.34569057    -0.03000
C3015       C  0.96421916  0.36448593  0.63120348    -0.09600
C3016       C  0.95611483  0.34566934  0.61263701     0.06600
C3017       C  0.94426908  0.32238837  0.62155346    -0.03400
C3018       C  0.93930640  0.31906007  0.64834219    -0.07800
C3019       C  0.94580539  0.33860282  0.66690826     0.05700
C3020       C  0.95917761  0.36126237  0.65807671    -0.02900
Br3021     Br  0.97010399  0.38924406  0.68093953    -0.02600
H3022       H  0.97363423  0.38241526  0.62467709     0.09600
H3023       H  0.92968208  0.30113292  0.65453265     0.07600
Br3024     Br  0.93503809  0.29410143  0.59833284    -0.03000
C3025       C  0.00102956  0.25009065  0.51950063    -0.09600
C3026       C  0.02855153  0.24977639  0.52105903     0.06600
C3027       C  0.04205083  0.27410746  0.52199310    -0.03400
C3028       C  0.02796748  0.29767078  0.52241320    -0.07800
C3029       C  0.00042192  0.29803153  0.52191042     0.05700
C3030       C  0.98691606  0.27373743  0.51976358    -0.02900
Br3031     Br  0.94930215  0.27065800  0.51848973    -0.02600
H3032       H  0.99030084  0.23174054  0.51858566     0.09600
H3033       H  0.03878831  0.31592894  0.52389231     0.07600
Br3034     Br  0.07959275  0.27730170  0.52483904    -0.03000
C3035       C  0.98970827  0.39535392  0.44920220    -0.09600
C3036       C  0.96669321  0.39712613  0.46417784     0.06600
C3037       C  0.94698327  0.41507691  0.45645715    -0.03400
C3038       C  0.95068675  0.43096543  0.43421596    -0.07800
C3039       C  0.97367071  0.42901233  0.41917992     0.05700
C3040       C  0.99323033  0.41084120  0.42677937    -0.02900
Br3041     Br  0.02610061  0.40771528  0.40849957    -0.02600
H3042       H  0.00530504  0.38219642  0.45531080     0.09600
H3043       H  0.93552915  0.44482408  0.42859686     0.07600
Br3044     Br  0.91560554  0.42018920  0.47667163    -0.03000
C3045       C  0.83468781  0.63687729  0.55517478    -0.09600
C3046       C  0.82430754  0.61799427  0.57255407     0.06600
C3047       C  0.80744899  0.62636219  0.59286739    -0.03400
C3048       C  0.80344102  0.65317568  0.59680282    -0.07800
C3049       C  0.81558426  0.67206425  0.58066292     0.05700
C3050       C  0.83037902  0.66363155  0.55893308    -0.02900
Br3051     Br  0.84468829  0.68730300  0.53327282    -0.02600
H3052       H  0.84691087  0.63095792  0.53879281     0.09600
H3053       H  0.79127701  0.65925396  0.61317826     0.07600
Br3054     Br  0.78913144  0.60274934  0.61594385    -0.03000
C3055       C  0.78252995  0.52985482  0.49940579    -0.09600
C3056       C  0.78335105  0.52870202  0.52696372     0.06600
C3057       C  0.75919706  0.52728628  0.54080595    -0.03400
C3058       C  0.73531333  0.52788634  0.52702243    -0.07800
C3059       C  0.73457314  0.52993995  0.49950182     0.05700
C3060       C  0.75871944  0.53062080  0.48567082    -0.02900
Br3061     Br  0.76135388  0.53487258  0.44819852    -0.02600
H3062       H  0.80064924  0.53111361  0.48832668     0.09600
H3063       H  0.71711846  0.52729685  0.53803569     0.07600
Br3064     Br  0.75668960  0.52634308  0.57850833    -0.03000
C3065       C  0.91299135  0.47762913  0.54462066    -0.09600
C3066       C  0.88864871  0.47554371  0.55751716     0.06600
C3067       C  0.88137694  0.45128042  0.56857862    -0.03400
C3068       C  0.89817469  0.42966398  0.56604426    -0.07800
C3069       C  0.92247951  0.43186787  0.55308516     0.05700
C3070       C  0.93001228  0.45629083  0.54262544    -0.02900
Br3071     Br  0.96219372  0.46145172  0.52360239    -0.02600
H3072       H  0.91889821  0.49608593  0.53585967     0.09600
H3073       H  0.89200871  0.41085576  0.57388837     0.07600
Br3074     Br  0.84814877  0.44589938  0.58547694    -0.03000
C3075       C  0.91494283  0.57641547  0.62896884    -0.09600
C3076       C  0.91701762  0.56442846  0.60410261     0.06600
C3077       C  0.94190427  0.55624561  0.59529462    -0.03400
C3078       C  0.96367524  0.55866685  0.61181223    -0.07800
C3079       C  0.96158549  0.56982356  0.63702097     0.05700
C3080       C  0.93704205  0.57966195  0.64520889    -0.02900
Br3081     Br  0.93215879  0.59631261  0.67867377    -0.02600
H3082       H  0.89596055  0.58299705  0.63593321     0.09600
H3083       H  0.98248462  0.55160643  0.60484336     0.07600
Br3084     Br  0.94740671  0.53986323  0.56178424    -0.03000
C3085       C  0.95381501  0.68289062  0.89610432    -0.09600
C3086       C  0.94358672  0.70174917  0.91348338     0.06600
C3087       C  0.93105822  0.72409692  0.90317943    -0.03400
C3088       C  0.92853242  0.72687937  0.87598350    -0.07800
C3089       C  0.93805551  0.70762404  0.85846384     0.05700
C3090       C  0.95109843  0.68546220  0.86891527    -0.02900
Br3091     Br  0.96517587  0.65742771  0.84790117    -0.02600
H3092       H  0.96347709  0.66551849  0.90375166     0.09600
H3093       H  0.91862213  0.74420418  0.86858975     0.07600
Br3094     Br  0.91777567  0.75190126  0.92495240    -0.03000
C3095       C  0.01477139  0.75310486  0.00180813    -0.09600
C3096       C  0.98721412  0.75270935  0.00259437     0.06600
C3097       C  0.97363000  0.77698036  0.00403546    -0.03400
C3098       C  0.98764237  0.80061712  0.00346615    -0.07800
C3099       C  0.01511557  0.80096537  0.00150952     0.05700
C3100       C  0.02875393  0.77670950  0.00115972    -0.02900
Br3101     Br  0.06623218  0.77366135  0.99749266    -0.02600
H3102       H  0.02564798  0.73485021  0.00077857     0.09600
H3103       H  0.97683705  0.81894040  0.00390465     0.07600
Br3104     Br  0.93601639  0.78006557  0.00518607    -0.03000
C3105       C  0.88889095  0.57171253  0.18072911    -0.09600
C3106       C  0.90731942  0.58938218  0.19165143     0.06600
C3107       C  0.89797471  0.61050995  0.20694450    -0.03400
C3108       C  0.87103389  0.61347316  0.21085315    -0.07800
C3109       C  0.85269199  0.59607798  0.19964527     0.05700
C3110       C  0.86186727  0.57492757  0.18446727    -0.02900
Br3111     Br  0.83879824  0.54925688  0.16924248    -0.02600
H3112       H  0.89542691  0.55529169  0.16887970     0.09600
H3113       H  0.86434828  0.62999070  0.22250112     0.07600
Br3114     Br  0.92024530  0.63646361  0.22297274    -0.03000
C3115       C  0.00181007  0.51385501  0.23822468    -0.09600
C3116       C  0.99495955  0.54049824  0.23760523     0.06600
C3117       C  0.98909066  0.55323446  0.26164171    -0.03400
C3118       C  0.98990551  0.53927295  0.28534341    -0.07800
C3119       C  0.99627272  0.51244773  0.28608682     0.05700
C3120       C  0.00269423  0.49981614  0.26197261    -0.02900
Br3121     Br  0.01225403  0.46339327  0.25914641    -0.02600
H3122       H  0.00635686  0.50377585  0.22002293     0.09600
H3123       H  0.98465604  0.54943831  0.30329642     0.07600
Br3124     Br  0.97727663  0.58904743  0.26364337    -0.03000
C3125       C  0.93896704  0.63383580  0.06747143    -0.09600
C3126       C  0.95423006  0.65635229  0.06318422     0.06600
C3127       C  0.97410591  0.66295701  0.08111349    -0.03400
C3128       C  0.97889434  0.64675895  0.10272898    -0.07800
C3129       C  0.96448674  0.62347838  0.10653361     0.05700
C3130       C  0.94398777  0.61730002  0.08889478    -0.02900
Br3131     Br  0.92198069  0.58699474  0.09312087    -0.02600
H3132       H  0.92393442  0.62840761  0.05338213     0.09600
H3133       H  0.99451931  0.65202451  0.11620607     0.07600
Br3134     Br  0.99552332  0.69360712  0.07636076    -0.03000
C3135       C  0.17498415  0.64233555  0.05893837    -0.09600
C3136       C  0.18805985  0.62375847  0.07479181     0.06600
C3137       C  0.20537716  0.63275576  0.09446332    -0.03400
C3138       C  0.20839429  0.65967944  0.09849136    -0.07800
C3139       C  0.19439687  0.67821202  0.08343291     0.05700
C3140       C  0.17787725  0.66925864  0.06308716    -0.02900
Br3141     Br  0.15870645  0.69229192  0.04007563    -0.02600
H3142       H  0.16170401  0.63597124  0.04356178     0.09600
H3143       H  0.22134619  0.66608018  0.11413531     0.07600
Br3144     Br  0.22556316  0.60984814  0.11670991    -0.03000
C3145       C  0.23363161  0.53171768  0.00149018    -0.09600
C3146       C  0.23299762  0.53299937  0.02902882     0.06600
C3147       C  0.25721197  0.53295150  0.04287922    -0.03400
C3148       C  0.28100095  0.53309954  0.02905110    -0.07800
C3149       C  0.28159659  0.53306116  0.00147061     0.05700
C3150       C  0.25738126  0.53165191  0.98767095    -0.02900
Br3151     Br  0.25443994  0.53151387  0.94995210    -0.02600
H3152       H  0.21541297  0.53153479  0.99045368     0.09600
H3153       H  0.29922462  0.53393217  0.04004565     0.07600
Br3154     Br  0.25991479  0.53453158  0.08055598    -0.03000
C3155       C  0.07525919  0.56389881  0.09414839    -0.09600
C3156       C  0.09957511  0.56947201  0.10563551     0.06600
C3157       C  0.10031020  0.57952772  0.13157240    -0.03400
C3158       C  0.07698766  0.58205350  0.14602722    -0.07800
C3159       C  0.05286258  0.57452191  0.13506745     0.05700
C3160       C  0.05208301  0.56624925  0.10850181    -0.02900
Br3161     Br  0.01998588  0.55867622  0.09002053    -0.02600
H3162       H  0.07427529  0.55686968  0.07408852     0.09600
H3163       H  0.07778663  0.58932800  0.16602487     0.07600
Br3164     Br  0.13234120  0.59107120  0.14787596    -0.03000
C3165       C  0.82836948  0.37718603  0.96685884    -0.09600
C3166       C  0.81474008  0.37117978  0.94372322     0.06600
C3167       C  0.80590837  0.39180620  0.92735632    -0.03400
C3168       C  0.81177456  0.41767983  0.93382092    -0.07800
C3169       C  0.82641983  0.42381106  0.95634716     0.05700
C3170       C  0.83404319  0.40318995  0.97352164    -0.02900
Br3171     Br  0.85239675  0.40831782  0.00619677    -0.02600
H3172       H  0.83479387  0.36151489  0.97978712     0.09600
H3173       H  0.80549602  0.43306797  0.92050098     0.07600
Br3174     Br  0.78780551  0.38646384  0.89455700    -0.03000
C3175       C  0.78335865  0.51946815  0.03064264    -0.09600
C3176       C  0.78384552  0.51109498  0.00440672     0.06600
C3177       C  0.75995878  0.50403090  0.99208819    -0.03400
C3178       C  0.73652167  0.50472602  0.00625229    -0.07800
C3179       C  0.73597066  0.51222191  0.03281089     0.05700
C3180       C  0.75978820  0.52040417  0.04482819    -0.02900
Br3181     Br  0.76217470  0.53313875  0.08032370    -0.02600
H3182       H  0.80147667  0.52523576  0.04022969     0.09600
H3183       H  0.71868822  0.49838358  0.99651137     0.07600
Br3184     Br  0.75784744  0.49072072  0.95674682    -0.03000
C3185       C  0.87100159  0.59263599  0.96461853    -0.09600
C3186       C  0.88388993  0.56912073  0.97065752     0.06600
C3187       C  0.91082075  0.56962211  0.97722596    -0.03400
C3188       C  0.92390252  0.59352731  0.97928154    -0.07800
C3189       C  0.91079126  0.61727050  0.97466075     0.05700
C3190       C  0.88416048  0.61668102  0.96654966    -0.02900
Br3191     Br  0.86475937  0.64757435  0.95684126    -0.02600
H3192       H  0.85052529  0.59233521  0.95877041     0.09600
H3193       H  0.94442255  0.59349396  0.98497678     0.07600
Br3194     Br  0.93138439  0.53833072  0.98218684    -0.03000
C3195       C  0.06148969  0.35952363  0.13379759    -0.09600
C3196       C  0.07135133  0.34227108  0.11465437     0.06600
C3197       C  0.08453905  0.31937428  0.12270110    -0.03400
C3198       C  0.08751474  0.31419207  0.14950175    -0.07800
C3199       C  0.07799427  0.33166019  0.16879585     0.05700
C3200       C  0.06486053  0.35468968  0.16056483    -0.02900
Br3201     Br  0.05173166  0.38117100  0.18408235    -0.02600
H3202       H  0.05157266  0.37742652  0.12789293     0.09600
H3203       H  0.09778422  0.29643657  0.15519228     0.07600
Br3204     Br  0.09827585  0.29405540  0.09833444    -0.03000
C3205       C  0.03711387  0.27503674  0.02486003    -0.09600
C3206       C  0.02211486  0.29825738  0.02601922     0.06600
C3207       C  0.99445274  0.29609659  0.02611026    -0.03400
C3208       C  0.98264872  0.27130738  0.02627067    -0.07800
C3209       C  0.99762871  0.24807989  0.02641359     0.05700
C3210       C  0.02526594  0.25019108  0.02510564    -0.02900
Br3211     Br  0.04820063  0.22028477  0.02339552    -0.02600
H3212       H  0.05836493  0.27609779  0.02456895     0.09600
H3213       H  0.96140416  0.27030897  0.02697465     0.07600
Br3214     Br  0.97123522  0.32585260  0.02589253    -0.03000
C3215       C  0.09037901  0.45483750  0.04850255    -0.09600
C3216       C  0.10182690  0.43119755  0.05654703     0.06600
C3217       C  0.12734556  0.43145948  0.06745614    -0.03400
C3218       C  0.14113842  0.45520011  0.06947313    -0.07800
C3219       C  0.13003759  0.47869903  0.06031341     0.05700
C3220       C  0.10415880  0.47839807  0.05014596    -0.02900
Br3221     Br  0.08574244  0.50944305  0.03903330    -0.02600
H3222       H  0.07075131  0.45492472  0.04021599     0.09600
H3223       H  0.16074010  0.45522486  0.07778599     0.07600
Br3224     Br  0.14385028  0.40030144  0.08082715    -0.03000
C3225       C  0.14473146  0.44626282  0.81666421    -0.09600
C3226       C  0.16293046  0.45813533  0.83385107     0.06600
C3227       C  0.15340470  0.47460589  0.85403862    -0.03400
C3228       C  0.12641353  0.47867041  0.85656745    -0.07800
C3229       C  0.10825739  0.46628240  0.83978027     0.05700
C3230       C  0.11771928  0.44997097  0.81952941    -0.02900
Br3231     Br  0.09521459  0.43235690  0.79483231    -0.02600
H3232       H  0.15144555  0.43347679  0.80103288     0.09600
H3233       H  0.11956560  0.49108583  0.87244657     0.07600
Br3234     Br  0.17548049  0.49195526  0.87932532    -0.03000
C3235       C  0.01472404  0.49682417  0.76935071    -0.09600
C3236       C  0.01607051  0.51219776  0.79232294     0.06600
C3237       C  0.01437752  0.53978343  0.78976086    -0.03400
C3238       C  0.01338406  0.55122614  0.76471200    -0.07800
C3239       C  0.01405980  0.53588130  0.74167850     0.05700
C3240       C  0.01372776  0.50825267  0.74431830    -0.02900
Br3241     Br  0.01206919  0.48468246  0.71486433    -0.02600
H3242       H  0.01539047  0.47559721  0.77070767     0.09600
H3243       H  0.01315150  0.57246062  0.76333645     0.07600
Br3244     Br  0.01333821  0.56322486  0.81933682    -0.03000
C3245       C  0.95353783  0.45851367  0.90825781    -0.09600
C3246       C  0.96054298  0.47882411  0.89092480     0.06600
C3247       C  0.94482010  0.50146412  0.88942842    -0.03400
C3248       C  0.92245374  0.50350343  0.90506695    -0.07800
C3249       C  0.91574806  0.48359379  0.92292164     0.05700
C3250       C  0.93142417  0.46087332  0.92447785    -0.02900
Br3251     Br  0.92309212  0.43242885  0.94774983    -0.02600
H3252       H  0.96584572  0.44122799  0.90988940     0.09600
H3253       H  0.91048317  0.52105158  0.90366432     0.07600
Br3254     Br  0.95291976  0.53003769  0.86617430    -0.03000
C3255       C  0.04560950  0.42690115  0.97281423    -0.09600
C3256       C  0.05466420  0.40094124  0.97031825     0.06600
C3257       C  0.06216554  0.39162814  0.94542413    -0.03400
C3258       C  0.05944276  0.40797041  0.92343901    -0.07800
C3259       C  0.04972259  0.43377073  0.92586534     0.05700
C3260       C  0.04320760  0.44334768  0.95101786    -0.02900
Br3261     Br  0.02903059  0.47781026  0.95701536    -0.02600
H3262       H  0.04019585  0.43448425  0.99196243     0.09600
H3263       H  0.06452686  0.40029261  0.90425042     0.07600
Br3264     Br  0.07436378  0.35639990  0.94004805    -0.03000
loop_ 
_geom_bond_atom_site_label_1 
_geom_bond_atom_site_label_2 
_geom_bond_distance 
_geom_bond_site_symmetry_2 
_ccdc_geom_bond_type 
O1            V9   1.909       .  S
O1           C11   1.267       .  A
O2            V9   1.906       .  S
O2           C12   1.267       .  A
O3            V9   1.884       .  S
O3           C13   1.261       .  A
O4            V9   1.885       .  S
O4           C14   1.260   1_455  A
O5           V10   1.906   1_655  S
O5           C14   1.266       .  A
O6           V10   1.903       .  S
O6           C13   1.266       .  A
O7           V10   1.887       .  S
O7           C12   1.261       .  A
O8           V10   1.897       .  S
O8           C11   1.264       .  A
V9           V10   2.084       .  T
C11        C3236   1.492       .  S
C12        C3259   1.477       .  S
C13        C3229   1.478       .  S
C14        C3246   1.467       .  S
O15          V23   1.903       .  S
O15          C25   1.266       .  A
O16          V23   1.899       .  S
O16          C26   1.266       .  A
O17          V23   1.880       .  S
O17          C27   1.260   1_554  A
O18          V23   1.878       .  S
O18          C28   1.260       .  A
O19          V24   1.905       .  S
O19          C28   1.266       .  A
O20          V24   1.911   1_556  S
O20          C27   1.267       .  A
O21          V24   1.893       .  S
O21          C26   1.261       .  A
O22          V24   1.898       .  S
O22          C25   1.264       .  A
V23          V24   2.086       .  T
C25        C3206   1.489       .  S
C26        C3216   1.472       .  S
C27        C3256   1.474       .  S
C28        C3196   1.473       .  S
O29          V37   1.911   1_554  S
O29          C39   1.268   1_554  A
O30          V37   1.911       .  S
O30          C40   1.267       .  A
O31          V37   1.882       .  S
O31          C41   1.260       .  A
O32          V37   1.881       .  S
O32          C42   1.257       .  A
O33          V38   1.900       .  S
O33          C42   1.268       .  A
O34          V38   1.903       .  S
O34          C41   1.265       .  A
O35          V38   1.883       .  S
O35          C40   1.260       .  A
O36          V38   1.885       .  S
O36          C39   1.259       .  A
V37          V38   2.086       .  T
C39        C3176   1.479   1_556  S
C40        C3249   1.470       .  S
C41        C3186   1.468       .  S
C42        C3169   1.478       .  S
O43          V51   1.910       .  S
O43          C53   1.269       .  A
O44          V51   1.909       .  S
O44          C54   1.268       .  A
O45          V51   1.878       .  S
O45          C55   1.259       .  A
O46          V51   1.881       .  S
O46          C56   1.259       .  A
O47          V52   1.912       .  S
O47          C56   1.268       .  A
O48          V52   1.904       .  S
O48          C55   1.266       .  A
O49          V52   1.888       .  S
O49          C54   1.260       .  A
O50          V52   1.893       .  S
O50          C53   1.261       .  A
V51          V52   2.084       .  T
C53        C3146   1.490       .  S
C54        C3156   1.477       .  S
C55        C3136   1.479       .  S
C56        C3219   1.475       .  S
O57          V65   1.917       .  S
O57          C67   1.270       .  A
O58          V65   1.913       .  S
O58          C68   1.268       .  A
O59          V65   1.881   1_455  S
O59          C69   1.259       .  A
O60          V65   1.878       .  S
O60          C70   1.259       .  A
O61          V66   1.909       .  S
O61          C70   1.268       .  A
O62          V66   1.916   1_455  S
O62          C69   1.268       .  A
O63          V66   1.882       .  S
O63          C68   1.259       .  A
O64          V66   1.890       .  S
O64          C67   1.261       .  A
V65          V66   2.084       .  T
C67        C3116   1.488       .  S
C68        C3129   1.477       .  S
C69        C3159   1.477       .  S
C70        C3106   1.484       .  S
O71          V79   1.903       .  S
O71          C81   1.268       .  A
O72          V79   1.901       .  S
O72          C82   1.267       .  A
O73          V79   1.880       .  S
O73          C83   1.260       .  A
O74          V79   1.882   1_554  S
O74          C84   1.259       .  A
O75          V80   1.909   1_554  S
O75          C84   1.266       .  A
O76          V80   1.906       .  S
O76          C83   1.267       .  A
O77          V80   1.886       .  S
O77          C82   1.259       .  A
O78          V80   1.893   1_554  S
O78          C81   1.261   1_554  A
V79          V80   2.084       .  T
C81        C3096   1.487   1_556  S
C82        C3189   1.476       .  S
C83        C3086   1.474       .  S
C84        C3126   1.463       .  S
O85          V93   1.908       .  S
O85          C95   1.269       .  A
O86          V93   1.910       .  S
O86          C96   1.268       .  A
O87          V93   1.879       .  S
O87          C97   1.260       .  A
O88          V93   1.875       .  S
O88          C98   1.259       .  A
O89          V94   1.904       .  S
O89          C98   1.266       .  A
O90          V94   1.912       .  S
O90          C97   1.268       .  A
O91          V94   1.893       .  S
O91          C96   1.262       .  A
O92          V94   1.897       .  S
O92          C95   1.262       .  A
V93          V94   2.084       .  T
C95        C3056   1.492       .  S
C96        C3076   1.480       .  S
C97        C3066   1.477       .  S
C98        C3046   1.478       .  S
O99         V107   1.909       .  S
O99         C109   1.269       .  A
O100        V107   1.907       .  S
O100        C110   1.267       .  A
O101        V107   1.890       .  S
O101        C111   1.261       .  A
O102        V107   1.891       .  S
O102        C112   1.262       .  A
O103        V108   1.914       .  S
O103        C112   1.268       .  A
O104        V108   1.907       .  S
O104        C111   1.268       .  A
O105        V108   1.883       .  S
O105        C110   1.260       .  A
O106        V108   1.894       .  S
O106        C109   1.261       .  A
V107        V108   2.082       .  T
C109       C3029   1.491   1_655  S
C110       C3069   1.472       .  S
C111       C3016   1.479       .  S
C112       C3036   1.477       .  S
O113        V121   1.917       .  S
O113        C123   1.271       .  A
O114        V121   1.919       .  S
O114        C124   1.270       .  A
O115        V121   1.874   1_455  S
O115        C125   1.258       .  A
O116        V121   1.870       .  S
O116        C126   1.257       .  A
O117        V122   1.915       .  S
O117        C126   1.269       .  A
O118        V122   1.918   1_455  S
O118        C125   1.269       .  A
O119        V122   1.886       .  S
O119        C124   1.259       .  A
O120        V122   1.892       .  S
O120        C123   1.260       .  A
V121        V122   2.083       .  T
C123       C3119   1.497       .  S
C124       C3039   1.478       .  S
C125       C3006   1.480       .  S
C126       C2996   1.483       .  S
O127        V135   1.914       .  S
O127        C137   1.269       .  A
O128        V135   1.912       .  S
O128        C138   1.269       .  A
O129        V135   1.883       .  S
O129        C139   1.258       .  A
O130        V135   1.883       .  S
O130        C140   1.260       .  A
O131        V136   1.910       .  S
O131        C140   1.267       .  A
O132        V136   1.905       .  S
O132        C139   1.269       .  A
O133        V136   1.884       .  S
O133        C138   1.259       .  A
O134        V136   1.888       .  S
O134        C137   1.261       .  A
V135        V136   2.083       .  T
C137       C2976   1.483       .  S
C138       C3009   1.476       .  S
C139       C2969   1.478       .  S
C140       C2986   1.470       .  S
O141        V149   1.906       .  S
O141        C151   1.266       .  A
O142        V149   1.902       .  S
O142        C152   1.266       .  A
O143        V149   1.883       .  S
O143        C153   1.261       .  A
O144        V149   1.886       .  S
O144        C154   1.262   1_455  A
O145        V150   1.915   1_655  S
O145        C154   1.268       .  A
O146        V150   1.908       .  S
O146        C153   1.267       .  A
O147        V150   1.894       .  S
O147        C152   1.263       .  A
O148        V150   1.899       .  S
O148        C151   1.265       .  A
V149        V150   2.084       .  T
C151       C3239   1.492       .  S
C152       C2956   1.481       .  S
C153       C2946   1.481       .  S
C154       C3079   1.483       .  S
O155        V163   1.915       .  S
O155        C165   1.268       .  A
O156        V163   1.909       .  S
O156        C166   1.267       .  A
O157        V163   1.881       .  S
O157        C167   1.261       .  A
O158        V163   1.879       .  S
O158        C168   1.259       .  A
O159        V164   1.912       .  S
O159        C168   1.268       .  A
O160        V164   1.914       .  S
O160        C167   1.267       .  A
O161        V164   1.886       .  S
O161        C166   1.260       .  A
O162        V164   1.892       .  S
O162        C165   1.264       .  A
V163        V164   2.086       .  T
C165       C2936   1.495       .  S
C166       C2989   1.469       .  S
C167       C2959   1.476       .  S
C168       C2929   1.479       .  S
O169        V177   1.918       .  S
O169        C179   1.270       .  A
O170        V177   1.912       .  S
O170        C180   1.268       .  A
O171        V177   1.888       .  S
O171        C181   1.261       .  A
O172        V177   1.884       .  S
O172        C182   1.258       .  A
O173        V178   1.903       .  S
O173        C182   1.269       .  A
O174        V178   1.910       .  S
O174        C181   1.267       .  A
O175        V178   1.885       .  S
O175        C180   1.261       .  A
O176        V178   1.893       .  S
O176        C179   1.262       .  A
V177        V178   2.085       .  T
C179       C2896   1.494       .  S
C180       C2916   1.479       .  S
C181       C2906   1.472       .  S
C182       C2886   1.482       .  S
O183        V191   1.915       .  S
O183        C193   1.270       .  A
O184        V191   1.916       .  S
O184        C194   1.271       .  A
O185        V191   1.874       .  S
O185        C195   1.258       .  A
O186        V191   1.876       .  S
O186        C196   1.257       .  A
O187        V192   1.914       .  S
O187        C196   1.268       .  A
O188        V192   1.913       .  S
O188        C195   1.268       .  A
O189        V192   1.882       .  S
O189        C194   1.258       .  A
O190        V192   1.887       .  S
O190        C193   1.259       .  A
V191        V192   2.083       .  T
C193       C3149   1.490   1_556  S
C194       C2909   1.485       .  S
C195       C2869   1.483       .  S
C196       C2876   1.475       .  S
O197        V205   1.903       .  S
O197        C207   1.265   1_556  A
O198        V205   1.902       .  S
O198        C208   1.267       .  A
O199        V205   1.885   1_554  S
O199        C209   1.260       .  A
O200        V205   1.883       .  S
O200        C210   1.261       .  A
O201        V206   1.907       .  S
O201        C210   1.267       .  A
O202        V206   1.912   1_554  S
O202        C209   1.267       .  A
O203        V206   1.889       .  S
O203        C208   1.260       .  A
O204        V206   1.896   1_554  S
O204        C207   1.264       .  A
V205        V206   2.083       .  T
C207       C2846   1.489       .  S
C208       C2879   1.472       .  S
C209       C2856   1.471       .  S
C210       C2836   1.485       .  S
O211        V219   1.913       .  S
O211        C221   1.270       .  A
O212        V219   1.912       .  S
O212        C222   1.268       .  A
O213        V219   1.876       .  S
O213        C223   1.258       .  A
O214        V219   1.881       .  S
O214        C224   1.261       .  A
O215        V220   1.908       .  S
O215        C224   1.267       .  A
O216        V220   1.905       .  S
O216        C223   1.266       .  A
O217        V220   1.887       .  S
O217        C222   1.260       .  A
O218        V220   1.892       .  S
O218        C221   1.260       .  A
V219        V220   2.086       .  T
C221       C2816   1.494       .  S
C222       C2859   1.473       .  S
C223       C2806   1.467       .  S
C224       C2826   1.480       .  S
O225        V233   1.911       .  S
O225        C235   1.269       .  A
O226        V233   1.909       .  S
O226        C236   1.267       .  A
O227        V233   1.880       .  S
O227        C237   1.258       .  A
O228        V233   1.887       .  S
O228        C238   1.260   1_554  A
O229        V234   1.909   1_556  S
O229        C238   1.266       .  A
O230        V234   1.908       .  S
O230        C237   1.268       .  A
O231        V234   1.890       .  S
O231        C236   1.261       .  A
O232        V234   1.895       .  S
O232        C235   1.262       .  A
V233        V234   2.086       .  T
C235       C2786   1.491       .  S
C236       C2796   1.474       .  S
C237       C2779   1.477       .  S
C238       C2919   1.466       .  S
O239        V247   1.903       .  S
O239        C249   1.268       .  A
O240        V247   1.903       .  S
O240        C250   1.267       .  A
O241        V247   1.878       .  S
O241        C251   1.258       .  A
O242        V247   1.881       .  S
O242        C252   1.260       .  A
O243        V248   1.910       .  S
O243        C252   1.268       .  A
O244        V248   1.915       .  S
O244        C251   1.268       .  A
O245        V248   1.888       .  S
O245        C250   1.260       .  A
O246        V248   1.894       .  S
O246        C249   1.261       .  A
V247        V248   2.084       .  T
C249       C3179   1.489       .  S
C250       C2829   1.471       .  S
C251       C2799   1.468       .  S
C252       C2766   1.481       .  S
O253        V261   1.902       .  S
O253        C263   1.266       .  A
O254        V261   1.899       .  S
O254        C264   1.265       .  A
O255        V261   1.881       .  S
O255        C265   1.260       .  A
O256        V261   1.879       .  S
O256        C266   1.258       .  A
O257        V262   1.901       .  S
O257        C266   1.265       .  A
O258        V262   1.908       .  S
O258        C265   1.266       .  A
O259        V262   1.892       .  S
O259        C264   1.261       .  A
O260        V262   1.898       .  S
O260        C263   1.265       .  A
V261        V262   2.083       .  T
C263       C2736   1.490       .  S
C264       C2756   1.468       .  S
C265       C2749   1.472       .  S
C266       C2726   1.454       .  S
O267        V275   1.918       .  S
O267        C277   1.270       .  A
O268        V275   1.916       .  S
O268        C278   1.269       .  A
O269        V275   1.867       .  S
O269        C279   1.257       .  A
O270        V275   1.875       .  S
O270        C280   1.257       .  A
O271        V276   1.916       .  S
O271        C280   1.269       .  A
O272        V276   1.913       .  S
O272        C279   1.268       .  A
O273        V276   1.877       .  S
O273        C278   1.257       .  A
O274        V276   1.886       .  S
O274        C277   1.259       .  A
V275        V276   2.086       .  T
C277       C2819   1.482       .  S
C278       C2746   1.466       .  S
C279       C2706   1.480       .  S
C280       C2716   1.473       .  S
O281        V289   1.914       .  S
O281        C291   1.269       .  A
O282        V289   1.910       .  S
O282        C292   1.270       .  A
O283        V289   1.886       .  S
O283        C293   1.260       .  A
O284        V289   1.885       .  S
O284        C294   1.260       .  A
O285        V290   1.908       .  S
O285        C294   1.268       .  A
O286        V290   1.911       .  S
O286        C293   1.267       .  A
O287        V290   1.886       .  S
O287        C292   1.259       .  A
O288        V290   1.891       .  S
O288        C291   1.261       .  A
V289        V290   2.083       .  T
C291       C3059   1.490       .  S
C292       C2719   1.481       .  S
C293       C2699   1.471       .  S
C294       C2689   1.478       .  S
O295        V303   1.908       .  S
O295        C305   1.268       .  A
O296        V303   1.910       .  S
O296        C306   1.267       .  A
O297        V303   1.876       .  S
O297        C307   1.259       .  A
O298        V303   1.880       .  S
O298        C308   1.260       .  A
O299        V304   1.913       .  S
O299        C308   1.267       .  A
O300        V304   1.912       .  S
O300        C307   1.268       .  A
O301        V304   1.889       .  S
O301        C306   1.260       .  A
O302        V304   1.892       .  S
O302        C305   1.261       .  A
V303        V304   2.086       .  T
C305       C2666   1.485       .  S
C306       C2696   1.472       .  S
C307       C2656   1.478       .  S
C308       C2676   1.475       .  S
O309        V317   1.916       .  S
O309        C319   1.269       .  A
O310        V317   1.912       .  S
O310        C320   1.267       .  A
O311        V317   1.885       .  S
O311        C321   1.260       .  A
O312        V317   1.877       .  S
O312        C322   1.259       .  A
O313        V318   1.915       .  S
O313        C322   1.269       .  A
O314        V318   1.917       .  S
O314        C321   1.269       .  A
O315        V318   1.887       .  S
O315        C320   1.260       .  A
O316        V318   1.890       .  S
O316        C319   1.262       .  A
V317        V318   2.085       .  T
C319       C2899   1.495       .  S
C320       C2679   1.469       .  S
C321       C2646   1.477       .  S
C322       C2639   1.483       .  S
O323        V331   1.907       .  S
O323        C333   1.269       .  A
O324        V331   1.908       .  S
O324        C334   1.267       .  A
O325        V331   1.873       .  S
O325        C335   1.256       .  A
O326        V331   1.876       .  S
O326        C336   1.260       .  A
O327        V332   1.912       .  S
O327        C336   1.267       .  A
O328        V332   1.906       .  S
O328        C335   1.266       .  A
O329        V332   1.895       .  S
O329        C334   1.263       .  A
O330        V332   1.897       .  S
O330        C333   1.262       .  A
V331        V332   2.084       .  T
C333       C2979   1.493       .  S
C334       C2649   1.489       .  S
C335       C2626   1.460       .  S
C336       C2759   1.479       .  S
O337        V345   1.912       .  S
O337        C347   1.268       .  A
O338        V345   1.910       .  S
O338        C348   1.267       .  A
O339        V345   1.891       .  S
O339        C349   1.263       .  A
O340        V345   1.882       .  S
O340        C350   1.261       .  A
O341        V346   1.909       .  S
O341        C350   1.267       .  A
O342        V346   1.911       .  S
O342        C349   1.268       .  A
O343        V346   1.884       .  S
O343        C348   1.259       .  A
O344        V346   1.886       .  S
O344        C347   1.262       .  A
V345        V346   2.085       .  T
C347       C2739   1.484       .  S
C348       C2619   1.470       .  S
C349       C2609   1.487       .  S
C350       C2596   1.483       .  S
O351        V359   1.909       .  S
O351        C361   1.268       .  A
O352        V359   1.909       .  S
O352        C362   1.268       .  A
O353        V359   1.884       .  S
O353        C363   1.261       .  A
O354        V359   1.880       .  S
O354        C364   1.260       .  A
O355        V360   1.912       .  S
O355        C364   1.267       .  A
O356        V360   1.907       .  S
O356        C363   1.267       .  A
O357        V360   1.894       .  S
O357        C362   1.262       .  A
O358        V360   1.902       .  S
O358        C361   1.263       .  A
V359        V360   2.085       .  T
C361       C2576   1.488       .  S
C362       C2606   1.480       .  S
C363       C2566   1.479       .  S
C364       C2586   1.473       .  S
O365        V373   1.902       .  S
O365        C375   1.268       .  A
O366        V373   1.900       .  S
O366        C376   1.266       .  A
O367        V373   1.887       .  S
O367        C377   1.260       .  A
O368        V373   1.886       .  S
O368        C378   1.260       .  A
O369        V374   1.907       .  S
O369        C378   1.266       .  A
O370        V374   1.904       .  S
O370        C377   1.266       .  A
O371        V374   1.894       .  S
O371        C376   1.262       .  A
O372        V374   1.897       .  S
O372        C375   1.262       .  A
V373        V374   2.084       .  T
C375       C2669   1.490       .  S
C376       C2556   1.473       .  S
C377       C2536   1.464       .  S
C378       C2546   1.467       .  S
O379        V387   1.910       .  S
O379        C389   1.269   1_565  A
O380        V387   1.913       .  S
O380        C390   1.268       .  A
O381        V387   1.873   1_545  S
O381        C391   1.259       .  A
O382        V387   1.868       .  S
O382        C392   1.257       .  A
O383        V388   1.916   1_565  S
O383        C392   1.269       .  A
O384        V388   1.918       .  S
O384        C391   1.269       .  A
O385        V388   1.884   1_565  S
O385        C390   1.259       .  A
O386        V388   1.889       .  S
O386        C389   1.259       .  A
V387        V388   2.084   1_565  T
C389       C2526   1.486       .  S
C390       C2589   1.470       .  S
C391       C2559   1.483       .  S
C392       C2519   1.483       .  S
O393        V401   1.905       .  S
O393        C403   1.268       .  A
O394        V401   1.903       .  S
O394        C404   1.266       .  A
O395        V401   1.882       .  S
O395        C405   1.260       .  A
O396        V401   1.878       .  S
O396        C406   1.258       .  A
O397        V402   1.912       .  S
O397        C406   1.269       .  A
O398        V402   1.911       .  S
O398        C405   1.267       .  A
O399        V402   1.891       .  S
O399        C404   1.262       .  A
O400        V402   1.893       .  S
O400        C403   1.261       .  A
V401        V402   2.086       .  T
C403       C2496   1.484       .  S
C404       C2549   1.472       .  S
C405       C2509   1.474       .  S
C406       C2486   1.477       .  S
O407        V415   1.910       .  S
O407        C417   1.268       .  A
O408        V415   1.908       .  S
O408        C418   1.267       .  A
O409        V415   1.881       .  S
O409        C419   1.258       .  A
O410        V415   1.880       .  S
O410        C420   1.260   1_545  A
O411        V416   1.910       .  S
O411        C420   1.267   1_545  A
O412        V416   1.905       .  S
O412        C419   1.267       .  A
O413        V416   1.888       .  S
O413        C418   1.262       .  A
O414        V416   1.892       .  S
O414        C417   1.263       .  A
V415        V416   2.083       .  T
C417       C2476   1.490       .  S
C418       C2506   1.483       .  S
C419       C2469   1.465       .  S
C420       C2616   1.469       .  S
O421        V429   1.912       .  S
O421        C431   1.268       .  A
O422        V429   1.911       .  S
O422        C432   1.268       .  A
O423        V429   1.882       .  S
O423        C433   1.258       .  A
O424        V429   1.882       .  S
O424        C434   1.259   1_554  A
O425        V430   1.907   1_556  S
O425        C434   1.266       .  A
O426        V430   1.897       .  S
O426        C433   1.267       .  A
O427        V430   1.888       .  S
O427        C432   1.260       .  A
O428        V430   1.896       .  S
O428        C431   1.263       .  A
V429        V430   2.086       .  T
C431       C2789   1.480       .  S
C432       C2456   1.476       .  S
C433       C2436   1.474       .  S
C434       C2446   1.465       .  S
O435        V443   1.904       .  S
O435        C445   1.268       .  A
O436        V443   1.906       .  S
O436        C446   1.268       .  A
O437        V443   1.878       .  S
O437        C447   1.258   1_545  A
O438        V443   1.872       .  S
O438        C448   1.258       .  A
O439        V444   1.911       .  S
O439        C448   1.268       .  A
O440        V444   1.918       .  S
O440        C447   1.270   1_545  A
O441        V444   1.884       .  S
O441        C446   1.259       .  A
O442        V444   1.895       .  S
O442        C445   1.261       .  A
V443        V444   2.085       .  T
C445       C2416   1.487       .  S
C446       C2426   1.476       .  S
C447       C2459   1.480       .  S
C448       C2409   1.478       .  S
O449        V457   1.913   1_545  S
O449        C459   1.268   1_545  A
O450        V457   1.914       .  S
O450        C460   1.269       .  A
O451        V457   1.881       .  S
O451        C461   1.259       .  A
O452        V457   1.880       .  S
O452        C462   1.260       .  A
O453        V458   1.908       .  S
O453        C462   1.267       .  A
O454        V458   1.911       .  S
O454        C461   1.267       .  A
O455        V458   1.880       .  S
O455        C460   1.258       .  A
O456        V458   1.886       .  S
O456        C459   1.260       .  A
V457        V458   2.087       .  T
C459       C2499   1.473   1_565  S
C460       C2449   1.471       .  S
C461       C2396   1.467       .  S
C462       C2389   1.484       .  S
O463        V471   1.919       .  S
O463        C473   1.271       .  A
O464        V471   1.915       .  S
O464        C474   1.269       .  A
O465        V471   1.875       .  S
O465        C475   1.257       .  A
O466        V471   1.878       .  S
O466        C476   1.259       .  A
O467        V472   1.911       .  S
O467        C476   1.267       .  A
O468        V472   1.906       .  S
O468        C475   1.268       .  A
O469        V472   1.883       .  S
O469        C474   1.259       .  A
O470        V472   1.888       .  S
O470        C473   1.260       .  A
V471        V472   2.086       .  T
C473       C2579   1.495       .  S
C474       C2379   1.473       .  S
C475       C2369   1.468       .  S
C476       C2429   1.468       .  S
O477        V485   1.905       .  S
O477        C487   1.266   1_556  A
O478        V485   1.906       .  S
O478        C488   1.269       .  A
O479        V485   1.879   1_554  S
O479        C489   1.258       .  A
O480        V485   1.876       .  S
O480        C490   1.260       .  A
O481        V486   1.912       .  S
O481        C490   1.268       .  A
O482        V486   1.914   1_554  S
O482        C489   1.268       .  A
O483        V486   1.889       .  S
O483        C488   1.260       .  A
O484        V486   1.896   1_554  S
O484        C487   1.264       .  A
V485        V486   2.084       .  T
C487       C2849   1.485       .  S
C488       C2359   1.484       .  S
C489       C2376   1.468       .  S
C490       C2346   1.484       .  S
O491        V499   1.911   1_545  S
O491        C501   1.268       .  A
O492        V499   1.909       .  S
O492        C502   1.267       .  A
O493        V499   1.870       .  S
O493        C503   1.258       .  A
O494        V499   1.878   1_545  S
O494        C504   1.258       .  A
O495        V500   1.917       .  S
O495        C504   1.269       .  A
O496        V500   1.914   1_565  S
O496        C503   1.269       .  A
O497        V500   1.885       .  S
O497        C502   1.259   1_545  A
O498        V500   1.891       .  S
O498        C501   1.262       .  A
V499        V500   2.085   1_565  T
C501       C2336   1.485       .  S
C502       C2399   1.469       .  S
C503       C2326   1.478       .  S
C504       C2356   1.472       .  S
O505        V513   1.909       .  S
O505        C515   1.267       .  A
O506        V513   1.905       .  S
O506        C516   1.267       .  A
O507        V513   1.888       .  S
O507        C517   1.261   1_554  A
O508        V513   1.892       .  S
O508        C518   1.262       .  A
O509        V514   1.902       .  S
O509        C518   1.267       .  A
O510        V514   1.909   1_556  S
O510        C517   1.266       .  A
O511        V514   1.887       .  S
O511        C516   1.260       .  A
O512        V514   1.892       .  S
O512        C515   1.264       .  A
V513        V514   2.083       .  T
C515       C3209   1.489       .  S
C516       C2319   1.469       .  S
C517       C2306   1.471       .  S
C518       C2299   1.477       .  S
O519        V527   1.916   1_545  S
O519        C529   1.269       .  A
O520        V527   1.918       .  S
O520        C530   1.269       .  A
O521        V527   1.877       .  S
O521        C531   1.259       .  A
O522        V527   1.882   1_545  S
O522        C532   1.261       .  A
O523        V528   1.907       .  S
O523        C532   1.266       .  A
O524        V528   1.905   1_565  S
O524        C531   1.266       .  A
O525        V528   1.885   1_565  S
O525        C530   1.259       .  A
O526        V528   1.889       .  S
O526        C529   1.262       .  A
V527        V528   2.084   1_565  T
C529       C2339   1.494       .  S
C530       C2289   1.474       .  S
C531       C2276   1.478       .  S
C532       C2316   1.483       .  S
O533        V541   1.915   1_545  S
O533        C543   1.269   1_545  A
O534        V541   1.912       .  S
O534        C544   1.269       .  A
O535        V541   1.879   1_655  S
O535        C545   1.260       .  A
O536        V541   1.880       .  S
O536        C546   1.257       .  A
O537        V542   1.911       .  S
O537        C546   1.268       .  A
O538        V542   1.920   1_655  S
O538        C545   1.270       .  A
O539        V542   1.886       .  S
O539        C544   1.260       .  A
O540        V542   1.896       .  S
O540        C543   1.262       .  A
V541        V542   2.086       .  T
C543       C2256   1.482   1_565  S
C544       C2266   1.477       .  S
C545       C2286   1.482       .  S
C546       C2246   1.462       .  S
O547        V555   1.909       .  S
O547        C557   1.269       .  A
O548        V555   1.905       .  S
O548        C558   1.267       .  A
O549        V555   1.882       .  S
O549        C559   1.259       .  A
O550        V555   1.884   1_554  S
O550        C560   1.261       .  A
O551        V556   1.912   1_554  S
O551        C560   1.268       .  A
O552        V556   1.910       .  S
O552        C559   1.268       .  A
O553        V556   1.881       .  S
O553        C558   1.259       .  A
O554        V556   1.888   1_554  S
O554        C557   1.260   1_554  A
V555        V556   2.085       .  T
C557       C3099   1.485   1_556  S
C558       C2236   1.471       .  S
C559       C2226   1.472       .  S
C560       C2269   1.480       .  S
O561        V569   1.913       .  S
O561        C571   1.269       .  A
O562        V569   1.906       .  S
O562        C572   1.268       .  A
O563        V569   1.883       .  S
O563        C573   1.260       .  A
O564        V569   1.880       .  S
O564        C574   1.260       .  A
O565        V570   1.903       .  S
O565        C574   1.265       .  A
O566        V570   1.903       .  S
O566        C573   1.266       .  A
O567        V570   1.884       .  S
O567        C572   1.258       .  A
O568        V570   1.886       .  S
O568        C571   1.259       .  A
V569        V570   2.084       .  T
C571       C2419   1.490       .  S
C572       C2216   1.478       .  S
C573       C2239   1.469   1_545  S
C574       C2206   1.481       .  S
O575        V583   1.921       .  S
O575        C585   1.270       .  A
O576        V583   1.915       .  S
O576        C586   1.269       .  A
O577        V583   1.876       .  S
O577        C587   1.259       .  A
O578        V583   1.881   1_455  S
O578        C588   1.259       .  A
O579        V584   1.907   1_455  S
O579        C588   1.266       .  A
O580        V584   1.904       .  S
O580        C587   1.266       .  A
O581        V584   1.887       .  S
O581        C586   1.260       .  A
O582        V584   1.891       .  S
O582        C585   1.263       .  A
V583        V584   2.085       .  T
C585       C2196   1.495       .  S
C586       C2309   1.476       .  S
C587       C2186   1.476       .  S
C588       C2219   1.467       .  S
O589        V597   1.920       .  S
O589        C599   1.271       .  A
O590        V597   1.914       .  S
O590        C600   1.269       .  A
O591        V597   1.883       .  S
O591        C601   1.260   1_455  A
O592        V597   1.879       .  S
O592        C602   1.257       .  A
O593        V598   1.907       .  S
O593        C602   1.269       .  A
O594        V598   1.912   1_655  S
O594        C601   1.267       .  A
O595        V598   1.883       .  S
O595        C600   1.259       .  A
O596        V598   1.887       .  S
O596        C599   1.260       .  A
V597        V598   2.085       .  T
C599       C2259   1.492       .  S
C600       C2176   1.473       .  S
C601       C2166   1.473       .  S
C602       C2159   1.478       .  S
O603        V611   1.911       .  S
O603        C613   1.268       .  A
O604        V611   1.913       .  S
O604        C614   1.268       .  A
O605        V611   1.875       .  S
O605        C615   1.258       .  A
O606        V611   1.878       .  S
O606        C616   1.258       .  A
O607        V612   1.920       .  S
O607        C616   1.270       .  A
O608        V612   1.913       .  S
O608        C615   1.269       .  A
O609        V612   1.886       .  S
O609        C614   1.261       .  A
O610        V612   1.890       .  S
O610        C613   1.262       .  A
V611        V612   2.083       .  T
C613       C2479   1.488       .  S
C614       C2169   1.487       .  S
C615       C2139   1.473       .  S
C616       C2146   1.483   1_545  S
O617        V625   1.904       .  S
O617        C627   1.267       .  A
O618        V625   1.902       .  S
O618        C628   1.267       .  A
O619        V625   1.883       .  S
O619        C629   1.259       .  A
O620        V625   1.879       .  S
O620        C630   1.258       .  A
O621        V626   1.913       .  S
O621        C630   1.268       .  A
O622        V626   1.921       .  S
O622        C629   1.270       .  A
O623        V626   1.897       .  S
O623        C628   1.261       .  A
O624        V626   1.903       .  S
O624        C627   1.265       .  A
V625        V626   2.084       .  T
C627       C2939   1.488       .  S
C628       C2149   1.474       .  S
C629       C2126   1.478       .  S
C630       C2116   1.467       .  S
O631        V639   1.912       .  S
O631        C641   1.269       .  A
O632        V639   1.908       .  S
O632        C642   1.270       .  A
O633        V639   1.876       .  S
O633        C643   1.257       .  A
O634        V639   1.880       .  S
O634        C644   1.259       .  A
O635        V640   1.913       .  S
O635        C644   1.267       .  A
O636        V640   1.911       .  S
O636        C643   1.267       .  A
O637        V640   1.885       .  S
O637        C642   1.258       .  A
O638        V640   1.889       .  S
O638        C641   1.261       .  A
V639        V640   2.083       .  T
C641       C3026   1.488       .  S
C642       C2106   1.485       .  S
C643       C2096   1.461       .  S
C644       C2179   1.468       .  S
O645        V653   1.912   1_545  S
O645        C655   1.268       .  A
O646        V653   1.907       .  S
O646        C656   1.267       .  A
O647        V653   1.877   1_545  S
O647        C657   1.258       .  A
O648        V653   1.876       .  S
O648        C658   1.258       .  A
O649        V654   1.904   1_565  S
O649        C658   1.267       .  A
O650        V654   1.913       .  S
O650        C657   1.268       .  A
O651        V654   1.887   1_565  S
O651        C656   1.261       .  A
O652        V654   1.889       .  S
O652        C655   1.261       .  A
V653        V654   2.085   1_565  T
C655       C2529   1.475       .  S
C656       C2086   1.485       .  S
C657       C2109   1.467       .  S
C658       C2076   1.478       .  S
O659        V667   1.912   1_545  S
O659        C669   1.268   1_545  A
O660        V667   1.914       .  S
O660        C670   1.268       .  A
O661        V667   1.873       .  S
O661        C671   1.256       .  A
O662        V667   1.881   1_455  S
O662        C672   1.258       .  A
O663        V668   1.912   1_455  S
O663        C672   1.267       .  A
O664        V668   1.908       .  S
O664        C671   1.268       .  A
O665        V668   1.896       .  S
O665        C670   1.262       .  A
O666        V668   1.901   1_455  S
O666        C669   1.264   1_455  A
V667        V668   2.086       .  T
C669       C2199   1.500   1_565  S
C670       C2129   1.479       .  S
C671       C2066   1.466       .  S
C672       C2089   1.463       .  S
O673        V681   1.913       .  S
O673        C683   1.268       .  A
O674        V681   1.911       .  S
O674        C684   1.267       .  A
O675        V681   1.876       .  S
O675        C685   1.259       .  A
O676        V681   1.871       .  S
O676        C686   1.256       .  A
O677        V682   1.916       .  S
O677        C686   1.269       .  A
O678        V682   1.917       .  S
O678        C685   1.269       .  A
O679        V682   1.886       .  S
O679        C684   1.259       .  A
O680        V682   1.888       .  S
O680        C683   1.261       .  A
V681        V682   2.087       .  T
C683       C2036   1.480       .  S
C684       C2056   1.466       .  S
C685       C2046   1.479       .  S
C686       C2889   1.469       .  S
O687        V695   1.906       .  S
O687        C697   1.268       .  A
O688        V695   1.905       .  S
O688        C698   1.267       .  A
O689        V695   1.882       .  S
O689        C699   1.261       .  A
O690        V695   1.884       .  S
O690        C700   1.261       .  A
O691        V696   1.913       .  S
O691        C700   1.268       .  A
O692        V696   1.906       .  S
O692        C699   1.266       .  A
O693        V696   1.890       .  S
O693        C698   1.261       .  A
O694        V696   1.900       .  S
O694        C697   1.263       .  A
V695        V696   2.084       .  T
C697       C2016   1.487       .  S
C698       C2049   1.477       .  S
C699       C3089   1.484       .  S
C700       C2026   1.477       .  S
O701        V709   1.912       .  S
O701        C711   1.270       .  A
O702        V709   1.908       .  S
O702        C712   1.268       .  A
O703        V709   1.886       .  S
O703        C713   1.260       .  A
O704        V709   1.884       .  S
O704        C714   1.260       .  A
O705        V710   1.906       .  S
O705        C714   1.268       .  A
O706        V710   1.914       .  S
O706        C713   1.268       .  A
O707        V710   1.892       .  S
O707        C712   1.261       .  A
O708        V710   1.898       .  S
O708        C711   1.262       .  A
V709        V710   2.082       .  T
C711       C1986   1.497       .  S
C712       C2006   1.475       .  S
C713       C1996   1.470       .  S
C714       C2599   1.471       .  S
O715        V723   1.912       .  S
O715        C725   1.268       .  A
O716        V723   1.914       .  S
O716        C726   1.268       .  A
O717        V723   1.879       .  S
O717        C727   1.259       .  A
O718        V723   1.881       .  S
O718        C728   1.260       .  A
O719        V724   1.911       .  S
O719        C728   1.267       .  A
O720        V724   1.906       .  S
O720        C727   1.267       .  A
O721        V724   1.888       .  S
O721        C726   1.261       .  A
O722        V724   1.895       .  S
O722        C725   1.263       .  A
V723        V724   2.084       .  T
C725       C1976   1.494       .  S
C726       C1999   1.480       .  S
C727       C2329   1.479       .  S
C728       C2059   1.477       .  S
O729        V737   1.916       .  S
O729        C739   1.271       .  A
O730        V737   1.916       .  S
O730        C740   1.269       .  A
O731        V737   1.878       .  S
O731        C741   1.260       .  A
O732        V737   1.875       .  S
O732        C742   1.258       .  A
O733        V738   1.908       .  S
O733        C742   1.268       .  A
O734        V738   1.914       .  S
O734        C741   1.268       .  A
O735        V738   1.886       .  S
O735        C740   1.259       .  A
O736        V738   1.891       .  S
O736        C739   1.260       .  A
V737        V738   2.085       .  T
C739       C1956   1.492       .  S
C740       C2029   1.472       .  S
C741       C1966   1.481       .  S
C742       C3049   1.474       .  S
O743        V751   1.909       .  S
O743        C753   1.268       .  A
O744        V751   1.907       .  S
O744        C754   1.267       .  A
O745        V751   1.875       .  S
O745        C755   1.256       .  A
O746        V751   1.877       .  S
O746        C756   1.260       .  A
O747        V752   1.916       .  S
O747        C756   1.269       .  A
O748        V752   1.908       .  S
O748        C755   1.269       .  A
O749        V752   1.891       .  S
O749        C754   1.261       .  A
O750        V752   1.892       .  S
O750        C753   1.261       .  A
V751        V752   2.083       .  T
C753       C1946   1.485       .  S
C754       C1969   1.476       .  S
C755       C2069   1.478       .  S
C756       C2009   1.482       .  S
O757        V765   1.910       .  S
O757        C767   1.268       .  A
O758        V765   1.915       .  S
O758        C768   1.269       .  A
O759        V765   1.871       .  S
O759        C769   1.257       .  A
O760        V765   1.867       .  S
O760        C770   1.257       .  A
O761        V766   1.911       .  S
O761        C770   1.268       .  A
O762        V766   1.913       .  S
O762        C769   1.268       .  A
O763        V766   1.883       .  S
O763        C768   1.260       .  A
O764        V766   1.888       .  S
O764        C767   1.262       .  A
V765        V766   2.086       .  T
C767       C1916   1.488       .  S
C768       C1939   1.475       .  S
C769       C1926   1.469       .  S
C770       C2079   1.471       .  S
O771        V779   1.902       .  S
O771        C781   1.267       .  A
O772        V779   1.896       .  S
O772        C782   1.266       .  A
O773        V779   1.888       .  S
O773        C783   1.262       .  A
O774        V779   1.888       .  S
O774        C784   1.260       .  A
O775        V780   1.914       .  S
O775        C784   1.267       .  A
O776        V780   1.906       .  S
O776        C783   1.267       .  A
O777        V780   1.891       .  S
O777        C782   1.260       .  A
O778        V780   1.892       .  S
O778        C781   1.261       .  A
V779        V780   2.086       .  T
C781       C1896   1.484       .  S
C782       C1929   1.469       .  S
C783       C2949   1.486       .  S
C784       C1906   1.472       .  S
O785        V793   1.912       .  S
O785        C795   1.270       .  A
O786        V793   1.909       .  S
O786        C796   1.269       .  A
O787        V793   1.879       .  S
O787        C797   1.258       .  A
O788        V793   1.880       .  S
O788        C798   1.258       .  A
O789        V794   1.917       .  S
O789        C798   1.268       .  A
O790        V794   1.911       .  S
O790        C797   1.269       .  A
O791        V794   1.886       .  S
O791        C796   1.259       .  A
O792        V794   1.896       .  S
O792        C795   1.262       .  A
V793        V794   2.084       .  T
C795       C1866   1.490       .  S
C796       C1886   1.477       .  S
C797       C2866   1.473       .  S
C798       C1876   1.469       .  S
O799        V807   1.910       .  S
O799        C809   1.267       .  A
O800        V807   1.909       .  S
O800        C810   1.267       .  A
O801        V807   1.884       .  S
O801        C811   1.260       .  A
O802        V807   1.879       .  S
O802        C812   1.258       .  A
O803        V808   1.898       .  S
O803        C812   1.265       .  A
O804        V808   1.909       .  S
O804        C811   1.267       .  A
O805        V808   1.897       .  S
O805        C810   1.264       .  A
O806        V808   1.900       .  S
O806        C809   1.264       .  A
V807        V808   2.086       .  T
C809       C1989   1.485       .  S
C810       C1909   1.493       .  S
C811       C1889   1.478       .  S
C812       C2729   1.462       .  S
O813        V821   1.916       .  S
O813        C823   1.270       .  A
O814        V821   1.912       .  S
O814        C824   1.268       .  A
O815        V821   1.885       .  S
O815        C825   1.259       .  A
O816        V821   1.889       .  S
O816        C826   1.260       .  A
O817        V822   1.908       .  S
O817        C826   1.266       .  A
O818        V822   1.907       .  S
O818        C825   1.269       .  A
O819        V822   1.884       .  S
O819        C824   1.259       .  A
O820        V822   1.890       .  S
O820        C823   1.260       .  A
V821        V822   2.085       .  T
C823       C2019   1.495       .  S
C824       C1856   1.472       .  S
C825       C2229   1.483       .  S
C826       C1936   1.467       .  S
O827        V835   1.915       .  S
O827        C837   1.270       .  A
O828        V835   1.917       .  S
O828        C838   1.270       .  A
O829        V835   1.881       .  S
O829        C839   1.259       .  A
O830        V835   1.877       .  S
O830        C840   1.259       .  A
O831        V836   1.910       .  S
O831        C840   1.268       .  A
O832        V836   1.912       .  S
O832        C839   1.267       .  A
O833        V836   1.882       .  S
O833        C838   1.259       .  A
O834        V836   1.891       .  S
O834        C837   1.260       .  A
V835        V836   2.085       .  T
C837       C1846   1.494   1_565  S
C838       C1879   1.476       .  S
C839       C1859   1.466       .  S
C840       C2386   1.476       .  S
O841        V849   1.904       .  S
O841        C851   1.266       .  A
O842        V849   1.901       .  S
O842        C852   1.266       .  A
O843        V849   1.887       .  S
O843        C853   1.260       .  A
O844        V849   1.887       .  S
O844        C854   1.262       .  A
O845        V850   1.907       .  S
O845        C854   1.267       .  A
O846        V850   1.913       .  S
O846        C853   1.267       .  A
O847        V850   1.885       .  S
O847        C852   1.260       .  A
O848        V850   1.893       .  S
O848        C851   1.263       .  A
V849        V850   2.084       .  T
C851       C1816   1.482       .  S
C852       C1836   1.468       .  S
C853       C1829   1.469       .  S
C854       C2926   1.487       .  S
O855        V863   1.909       .  S
O855        C865   1.268       .  A
O856        V863   1.908       .  S
O856        C866   1.267       .  A
O857        V863   1.873       .  S
O857        C867   1.257       .  A
O858        V863   1.876       .  S
O858        C868   1.260       .  A
O859        V864   1.907       .  S
O859        C868   1.266       .  A
O860        V864   1.905       .  S
O860        C867   1.267       .  A
O861        V864   1.888       .  S
O861        C866   1.260       .  A
O862        V864   1.896       .  S
O862        C865   1.263       .  A
V863        V864   2.087       .  T
C865       C1796   1.489       .  S
C866       C1809   1.468       .  S
C867       C2709   1.467       .  S
C868       C1839   1.475       .  S
O869        V877   1.914       .  S
O869        C879   1.270       .  A
O870        V877   1.914       .  S
O870        C880   1.269       .  A
O871        V877   1.878       .  S
O871        C881   1.259       .  A
O872        V877   1.886       .  S
O872        C882   1.260       .  A
O873        V878   1.909       .  S
O873        C882   1.266       .  A
O874        V878   1.904       .  S
O874        C881   1.266       .  A
O875        V878   1.889       .  S
O875        C880   1.261       .  A
O876        V878   1.894       .  S
O876        C879   1.261       .  A
V877        V878   2.085       .  T
C879       C1869   1.496       .  S
C880       C1826   1.481       .  S
C881       C3139   1.477       .  S
C882       C1786   1.467       .  S
O883        V891   1.909       .  S
O883        C893   1.268       .  A
O884        V891   1.907       .  S
O884        C894   1.268       .  A
O885        V891   1.885       .  S
O885        C895   1.260       .  A
O886        V891   1.882       .  S
O886        C896   1.259       .  A
O887        V892   1.903       .  S
O887        C896   1.267       .  A
O888        V892   1.909       .  S
O888        C895   1.267       .  A
O889        V892   1.881       .  S
O889        C894   1.259       .  A
O890        V892   1.889       .  S
O890        C893   1.262       .  A
V891        V892   2.085       .  T
C893       C1919   1.486       .  S
C894       C1776   1.471       .  S
C895       C1806   1.473       .  S
C896       C2516   1.474       .  S
O897        V905   1.910       .  S
O897        C907   1.268       .  A
O898        V905   1.909       .  S
O898        C908   1.268       .  A
O899        V905   1.870       .  S
O899        C909   1.256       .  A
O900        V905   1.872       .  S
O900        C910   1.258       .  A
O901        V906   1.913       .  S
O901        C910   1.268       .  A
O902        V906   1.908       .  S
O902        C909   1.267       .  A
O903        V906   1.889       .  S
O903        C908   1.260       .  A
O904        V906   1.897       .  S
O904        C907   1.264       .  A
V905        V906   2.085       .  T
C907       C1756   1.494       .  S
C908       C1766   1.476       .  S
C909       C2439   1.462       .  S
C910       C1779   1.473       .  S
O911        V919   1.906       .  S
O911        C921   1.267       .  A
O912        V919   1.909       .  S
O912        C922   1.267       .  A
O913        V919   1.883       .  S
O913        C923   1.259       .  A
O914        V919   1.880       .  S
O914        C924   1.258       .  A
O915        V920   1.909       .  S
O915        C924   1.268       .  A
O916        V920   1.910       .  S
O916        C923   1.268       .  A
O917        V920   1.884       .  S
O917        C922   1.260       .  A
O918        V920   1.893       .  S
O918        C921   1.263       .  A
V919        V920   2.086       .  T
C921       C1746   1.487   1_565  S
C922       C1789   1.471       .  S
C923       C1769   1.478       .  S
C924       C2249   1.468       .  S
O925        V933   1.904       .  S
O925        C935   1.266       .  A
O926        V933   1.899       .  S
O926        C936   1.265       .  A
O927        V933   1.885       .  S
O927        C937   1.260       .  A
O928        V933   1.885       .  S
O928        C938   1.261       .  A
O929        V934   1.903       .  S
O929        C938   1.266       .  A
O930        V934   1.910       .  S
O930        C937   1.266       .  A
O931        V934   1.893       .  S
O931        C936   1.261       .  A
O932        V934   1.902       .  S
O932        C935   1.266       .  A
V933        V934   2.085       .  T
C935       C1719   1.490       .  S
C936       C1736   1.474       .  S
C937       C1726   1.466       .  S
C938       C2349   1.478       .  S
O939        V947   1.904       .  S
O939        C949   1.268       .  A
O940        V947   1.904       .  S
O940        C950   1.268       .  A
O941        V947   1.884       .  S
O941        C951   1.260       .  A
O942        V947   1.889       .  S
O942        C952   1.260       .  A
O943        V948   1.904       .  S
O943        C952   1.267       .  A
O944        V948   1.909       .  S
O944        C951   1.265       .  A
O945        V948   1.892       .  S
O945        C950   1.261       .  A
O946        V948   1.898       .  S
O946        C949   1.263       .  A
V947        V948   2.083       .  T
C949       C2039   1.490       .  S
C950       C1706   1.486       .  S
C951       C1696   1.465       .  S
C952       C2636   1.471       .  S
O953        V961   1.922       .  S
O953        C963   1.270       .  A
O954        V961   1.919       .  S
O954        C964   1.270       .  A
O955        V961   1.880       .  S
O955        C965   1.258       .  A
O956        V961   1.886       .  S
O956        C966   1.260       .  A
O957        V962   1.907       .  S
O957        C966   1.267       .  A
O958        V962   1.906       .  S
O958        C965   1.267       .  A
O959        V962   1.881       .  S
O959        C964   1.260       .  A
O960        V962   1.883       .  S
O960        C963   1.259       .  A
V961        V962   2.086       .  T
C963       C1686   1.482       .  S
C964       C1729   1.486       .  S
C965       C2466   1.475       .  S
C966       C1709   1.473       .  S
O967        V975   1.904       .  S
O967        C977   1.268       .  A
O968        V975   1.903       .  S
O968        C978   1.266       .  A
O969        V975   1.876       .  S
O969        C979   1.259       .  A
O970        V975   1.878       .  S
O970        C980   1.260       .  A
O971        V976   1.911       .  S
O971        C980   1.267       .  A
O972        V976   1.904       .  S
O972        C979   1.266       .  A
O973        V976   1.891       .  S
O973        C978   1.262       .  A
O974        V976   1.896       .  S
O974        C977   1.262       .  A
V975        V976   2.084       .  T
C977       C1949   1.491       .  S
C978       C1676   1.478       .  S
C979       C2189   1.477       .  S
C980       C1739   1.476       .  S
O981        V989   1.911       .  S
O981        C991   1.267       .  A
O982        V989   1.907       .  S
O982        C992   1.267       .  A
O983        V989   1.880       .  S
O983        C993   1.260       .  A
O984        V989   1.888       .  S
O984        C994   1.261       .  A
O985        V990   1.919       .  S
O985        C994   1.269       .  A
O986        V990   1.915       .  S
O986        C993   1.268       .  A
O987        V990   1.890       .  S
O987        C992   1.261       .  A
O988        V990   1.895       .  S
O988        C991   1.264       .  A
V989        V990   2.084       .  T
C991       C1656   1.496       .  S
C992       C1699   1.476       .  S
C993       C3019   1.488       .  S
C994       C1666   1.485       .  S
O995       V1003   1.914       .  S
O995       C1005   1.270       .  A
O996       V1003   1.914       .  S
O996       C1006   1.269       .  A
O997       V1003   1.878       .  S
O997       C1007   1.259       .  A
O998       V1003   1.875       .  S
O998       C1008   1.257       .  A
O999       V1004   1.906       .  S
O999       C1008   1.267       .  A
O1000      V1004   1.911       .  S
O1000      C1007   1.267       .  A
O1001      V1004   1.892       .  S
O1001      C1006   1.261       .  A
O1002      V1004   1.893       .  S
O1002      C1005   1.261       .  A
V1003      V1004   2.085       .  T
C1005      C1649   1.493       .  S
C1006      C1669   1.484       .  S
C1007      C1679   1.470       .  S
C1008      C3166   1.469       .  S
O1009      V1017   1.912       .  S
O1009      C1019   1.269       .  A
O1010      V1017   1.906       .  S
O1010      C1020   1.267       .  A
O1011      V1017   1.884       .  S
O1011      C1021   1.260       .  A
O1012      V1017   1.884       .  S
O1012      C1022   1.259       .  A
O1013      V1018   1.906       .  S
O1013      C1022   1.267       .  A
O1014      V1018   1.912       .  S
O1014      C1021   1.268       .  A
O1015      V1018   1.882       .  S
O1015      C1020   1.259       .  A
O1016      V1018   1.892       .  S
O1016      C1019   1.261       .  A
V1017      V1018   2.085       .  T
C1019      C1849   1.486       .  S
C1020      C1639   1.472       .  S
C1021      C1629   1.479       .  S
C1022      C2489   1.465       .  S
O1023      V1031   1.906       .  S
O1023      C1033   1.267       .  A
O1024      V1031   1.906       .  S
O1024      C1034   1.267       .  A
O1025      V1031   1.885       .  S
O1025      C1035   1.260       .  A
O1026      V1031   1.885       .  S
O1026      C1036   1.260       .  A
O1027      V1032   1.911       .  S
O1027      C1036   1.267       .  A
O1028      V1032   1.900       .  S
O1028      C1035   1.267       .  A
O1029      V1032   1.891       .  S
O1029      C1034   1.261       .  A
O1030      V1032   1.901       .  S
O1030      C1033   1.265       .  A
V1031      V1032   2.086       .  T
C1033      C1659   1.485       .  S
C1034      C1626   1.473       .  S
C1035      C2099   1.471       .  S
C1036      C1616   1.471       .  S
O1037      V1045   1.915       .  S
O1037      C1047   1.270       .  A
O1038      V1045   1.914       .  S
O1038      C1048   1.268       .  A
O1039      V1045   1.878       .  S
O1039      C1049   1.257       .  A
O1040      V1045   1.880       .  S
O1040      C1050   1.259       .  A
O1041      V1046   1.904       .  S
O1041      C1050   1.266       .  A
O1042      V1046   1.901       .  S
O1042      C1049   1.267       .  A
O1043      V1046   1.878       .  S
O1043      C1048   1.259       .  A
O1044      V1046   1.882       .  S
O1044      C1047   1.258       .  A
V1045      V1046   2.085       .  T
C1047      C1596   1.486       .  S
C1048      C1606   1.479       .  S
C1049      C2629   1.473       .  S
C1050      C1636   1.468       .  S
O1051      V1059   1.910       .  S
O1051      C1061   1.267       .  A
O1052      V1059   1.907       .  S
O1052      C1062   1.267       .  A
O1053      V1059   1.881       .  S
O1053      C1063   1.258       .  A
O1054      V1059   1.880       .  S
O1054      C1064   1.260       .  A
O1055      V1060   1.908       .  S
O1055      C1064   1.267       .  A
O1056      V1060   1.908       .  S
O1056      C1063   1.266       .  A
O1057      V1060   1.889       .  S
O1057      C1062   1.260       .  A
O1058      V1060   1.897       .  S
O1058      C1061   1.264       .  A
V1059      V1060   2.086       .  T
C1061      C1716   1.494       .  S
C1062      C1589   1.475       .  S
C1063      C1609   1.460       .  S
C1064      C2839   1.481       .  S
O1065      V1073   1.902       .  S
O1065      C1075   1.265       .  A
O1066      V1073   1.900       .  S
O1066      C1076   1.267       .  A
O1067      V1073   1.884       .  S
O1067      C1077   1.261       .  A
O1068      V1073   1.885       .  S
O1068      C1078   1.260       .  A
O1069      V1074   1.909       .  S
O1069      C1078   1.266       .  A
O1070      V1074   1.904       .  S
O1070      C1077   1.265       .  A
O1071      V1074   1.891       .  S
O1071      C1076   1.260       .  A
O1072      V1074   1.895       .  S
O1072      C1075   1.263       .  A
V1073      V1074   2.086       .  T
C1075      C1899   1.473       .  S
C1076      C1576   1.481       .  S
C1077      C3226   1.483       .  S
C1078      C1586   1.466       .  S
O1079      V1087   1.919       .  S
O1079      C1089   1.272       .  A
O1080      V1087   1.917       .  S
O1080      C1090   1.269       .  A
O1081      V1087   1.879       .  S
O1081      C1091   1.259       .  A
O1082      V1087   1.877       .  S
O1082      C1092   1.258       .  A
O1083      V1088   1.907       .  S
O1083      C1092   1.268       .  A
O1084      V1088   1.912       .  S
O1084      C1091   1.267       .  A
O1085      V1088   1.882       .  S
O1085      C1090   1.259       .  A
O1086      V1088   1.882       .  S
O1086      C1089   1.258       .  A
V1087      V1088   2.086       .  T
C1089      C1566   1.493       .  S
C1090      C1619   1.475       .  S
C1091      C1579   1.468       .  S
C1092      C2209   1.470       .  S
O1093      V1101   1.913       .  S
O1093      C1103   1.270       .  A
O1094      V1101   1.915       .  S
O1094      C1104   1.270       .  A
O1095      V1101   1.875       .  S
O1095      C1105   1.258       .  A
O1096      V1101   1.875       .  S
O1096      C1106   1.258       .  A
O1097      V1102   1.910       .  S
O1097      C1106   1.269       .  A
O1098      V1102   1.916       .  S
O1098      C1105   1.269       .  A
O1099      V1102   1.882       .  S
O1099      C1104   1.258       .  A
O1100      V1102   1.892       .  S
O1100      C1103   1.260       .  A
V1101      V1102   2.083       .  T
C1103      C1569   1.487       .  S
C1104      C1556   1.484       .  S
C1105      C1546   1.472       .  S
C1106      C2406   1.478       .  S
O1107      V1115   1.917       .  S
O1107      C1117   1.269       .  A
O1108      V1115   1.915       .  S
O1108      C1118   1.268       .  A
O1109      V1115   1.875       .  S
O1109      C1119   1.259       .  A
O1110      V1115   1.882       .  S
O1110      C1120   1.259       .  A
O1111      V1116   1.910       .  S
O1111      C1120   1.267       .  A
O1112      V1116   1.905       .  S
O1112      C1119   1.267       .  A
O1113      V1116   1.881       .  S
O1113      C1118   1.259       .  A
O1114      V1116   1.887       .  S
O1114      C1117   1.262       .  A
V1115      V1116   2.085       .  T
C1117      C1799   1.494       .  S
C1118      C1549   1.470       .  S
C1119      C2809   1.479       .  S
C1120      C1536   1.473       .  S
O1121      V1129   1.913       .  S
O1121      C1131   1.268       .  A
O1122      V1129   1.910       .  S
O1122      C1132   1.268       .  A
O1123      V1129   1.879       .  S
O1123      C1133   1.259       .  A
O1124      V1129   1.874       .  S
O1124      C1134   1.257       .  A
O1125      V1130   1.915       .  S
O1125      C1134   1.269       .  A
O1126      V1130   1.916       .  S
O1126      C1133   1.268       .  A
O1127      V1130   1.883       .  S
O1127      C1132   1.259       .  A
O1128      V1130   1.885       .  S
O1128      C1131   1.261       .  A
V1129      V1130   2.087       .  T
C1131      C1749   1.487       .  S
C1132      C1526   1.471       .  S
C1133      C1516   1.470       .  S
C1134      C2156   1.469       .  S
O1135      V1143   1.905       .  S
O1135      C1145   1.265       .  A
O1136      V1143   1.899       .  S
O1136      C1146   1.267       .  A
O1137      V1143   1.885       .  S
O1137      C1147   1.260       .  A
O1138      V1143   1.890       .  S
O1138      C1148   1.261       .  A
O1139      V1144   1.907       .  S
O1139      C1148   1.266       .  A
O1140      V1144   1.903       .  S
O1140      C1147   1.266       .  A
O1141      V1144   1.898       .  S
O1141      C1146   1.262       .  A
O1142      V1144   1.900       .  S
O1142      C1145   1.266       .  A
V1143      V1144   2.085       .  T
C1145      C1506   1.493       .  S
C1146      C1519   1.484       .  S
C1147      C2539   1.473       .  S
C1148      C1559   1.475       .  S
O1149      V1157   1.906       .  S
O1149      C1159   1.267       .  A
O1150      V1157   1.901       .  S
O1150      C1160   1.267       .  A
O1151      V1157   1.884       .  S
O1151      C1161   1.260       .  A
O1152      V1157   1.883       .  S
O1152      C1162   1.261       .  A
O1153      V1158   1.901       .  S
O1153      C1162   1.265       .  A
O1154      V1158   1.907       .  S
O1154      C1161   1.267       .  A
O1155      V1158   1.892       .  S
O1155      C1160   1.261       .  A
O1156      V1158   1.897       .  S
O1156      C1159   1.263       .  A
V1157      V1158   2.083       .  T
C1159      C1486   1.489       .  S
C1160      C1539   1.476       .  S
C1161      C1499   1.479       .  S
C1162      C3199   1.482       .  S
O1163      V1171   1.905       .  S
O1163      C1173   1.269       .  A
O1164      V1171   1.906       .  S
O1164      C1174   1.268       .  A
O1165      V1171   1.881       .  S
O1165      C1175   1.259       .  A
O1166      V1171   1.880       .  S
O1166      C1176   1.259       .  A
O1167      V1172   1.910       .  S
O1167      C1176   1.267       .  A
O1168      V1172   1.908       .  S
O1168      C1175   1.267       .  A
O1169      V1172   1.887       .  S
O1169      C1174   1.260       .  A
O1170      V1172   1.894       .  S
O1170      C1173   1.261       .  A
V1171      V1172   2.084       .  T
C1173      C1599   1.487       .  S
C1174      C1496   1.471       .  S
C1175      C2966   1.468       .  S
C1176      C1529   1.465       .  S
O1177      V1185   1.910       .  S
O1177      C1187   1.269       .  A
O1178      V1185   1.913       .  S
O1178      C1188   1.268       .  A
O1179      V1185   1.876       .  S
O1179      C1189   1.258       .  A
O1180      V1185   1.872       .  S
O1180      C1190   1.258       .  A
O1181      V1186   1.918       .  S
O1181      C1190   1.270       .  A
O1182      V1186   1.922       .  S
O1182      C1189   1.270       .  A
O1183      V1186   1.885       .  S
O1183      C1188   1.260       .  A
O1184      V1186   1.894       .  S
O1184      C1187   1.261       .  A
V1185      V1186   2.084       .  T
C1187      C1646   1.492       .  S
C1188      C1476   1.475       .  S
C1189      C1466   1.480       .  S
C1190      C2769   1.485       .  S
O1191      V1199   1.907       .  S
O1191      C1201   1.266       .  A
O1192      V1199   1.908       .  S
O1192      C1202   1.268       .  A
O1193      V1199   1.885       .  S
O1193      C1203   1.261       .  A
O1194      V1199   1.886       .  S
O1194      C1204   1.260       .  A
O1195      V1200   1.909       .  S
O1195      C1204   1.266       .  A
O1196      V1200   1.901       .  S
O1196      C1203   1.265       .  A
O1197      V1200   1.892       .  S
O1197      C1202   1.261       .  A
O1198      V1200   1.900       .  S
O1198      C1201   1.265       .  A
V1199      V1200   2.084       .  T
C1201      C1509   1.489       .  S
C1202      C1459   1.478       .  S
C1203      C2659   1.482       .  S
C1204      C1479   1.466       .  S
O1205      V1213   1.901       .  S
O1205      C1215   1.265       .  A
O1206      V1213   1.900       .  S
O1206      C1216   1.266       .  A
O1207      V1213   1.876       .  S
O1207      C1217   1.256       .  A
O1208      V1213   1.878       .  S
O1208      C1218   1.261       .  A
O1209      V1214   1.916       .  S
O1209      C1218   1.268       .  A
O1210      V1214   1.907       .  S
O1210      C1217   1.269       .  A
O1211      V1214   1.900       .  S
O1211      C1216   1.263       .  A
O1212      V1214   1.900       .  S
O1212      C1215   1.265       .  A
V1213      V1214   2.083       .  T
C1215      C1436   1.490       .  S
C1216      C1469   1.478       .  S
C1217      C2366   1.479       .  S
C1218      C1446   1.484       .  S
O1219      V1227   1.900       .  S
O1219      C1229   1.266       .  A
O1220      V1227   1.900       .  S
O1220      C1230   1.265       .  A
O1221      V1227   1.886       .  S
O1221      C1231   1.260       .  A
O1222      V1227   1.884       .  S
O1222      C1232   1.262       .  A
O1223      V1228   1.908       .  S
O1223      C1232   1.266       .  A
O1224      V1228   1.912       .  S
O1224      C1231   1.267       .  A
O1225      V1228   1.899       .  S
O1225      C1230   1.263       .  A
O1226      V1228   1.902       .  S
O1226      C1229   1.264       .  A
V1227      V1228   2.084       .  T
C1229      C1489   1.488       .  S
C1230      C1449   1.472       .  S
C1231      C1426   1.469       .  S
C1232      C2296   1.485       .  S
O1233      V1241   1.905       .  S
O1233      C1243   1.269       .  A
O1234      V1241   1.906       .  S
O1234      C1244   1.266       .  A
O1235      V1241   1.878       .  S
O1235      C1245   1.259       .  A
O1236      V1241   1.880       .  S
O1236      C1246   1.259       .  A
O1237      V1242   1.913       .  S
O1237      C1246   1.268       .  A
O1238      V1242   1.907       .  S
O1238      C1245   1.267       .  A
O1239      V1242   1.893       .  S
O1239      C1244   1.262       .  A
O1240      V1242   1.901       .  S
O1240      C1243   1.263       .  A
V1241      V1242   2.084       .  T
C1243      C1689   1.494       .  S
C1244      C1429   1.477       .  S
C1245      C2136   1.482       .  S
C1246      C1416   1.474       .  S
O1247      V1255   1.912       .  S
O1247      C1257   1.270       .  A
O1248      V1255   1.911       .  S
O1248      C1258   1.269       .  A
O1249      V1255   1.878       .  S
O1249      C1259   1.258       .  A
O1250      V1255   1.874       .  S
O1250      C1260   1.258       .  A
O1251      V1256   1.911       .  S
O1251      C1260   1.269       .  A
O1252      V1256   1.920       .  S
O1252      C1259   1.270       .  A
O1253      V1256   1.884       .  S
O1253      C1258   1.259       .  A
O1254      V1256   1.893       .  S
O1254      C1257   1.261       .  A
V1255      V1256   2.084       .  T
C1257      C1406   1.492       .  S
C1258      C1419   1.478       .  S
C1259      C1456   1.480       .  S
C1260      C2999   1.476       .  S
O1261      V1269   1.909       .  S
O1261      C1271   1.267       .  A
O1262      V1269   1.906       .  S
O1262      C1272   1.267       .  A
O1263      V1269   1.884       .  S
O1263      C1273   1.261       .  A
O1264      V1269   1.887       .  S
O1264      C1274   1.261       .  A
O1265      V1270   1.907       .  S
O1265      C1274   1.266       .  A
O1266      V1270   1.900       .  S
O1266      C1273   1.265       .  A
O1267      V1270   1.891       .  S
O1267      C1272   1.261       .  A
O1268      V1270   1.896       .  S
O1268      C1271   1.264       .  A
V1269      V1270   2.084       .  T
C1271      C1979   1.490       .  S
C1272      C1396   1.477       .  S
C1273      C2279   1.479       .  S
C1274      C1386   1.473       .  S
O1275      V1283   1.907       .  S
O1275      C1285   1.266       .  A
O1276      V1283   1.907       .  S
O1276      C1286   1.267       .  A
O1277      V1283   1.883       .  S
O1277      C1287   1.262       .  A
O1278      V1283   1.882       .  S
O1278      C1288   1.260       .  A
O1279      V1284   1.908       .  S
O1279      C1288   1.266       .  A
O1280      V1284   1.903       .  S
O1280      C1287   1.265       .  A
O1281      V1284   1.891       .  S
O1281      C1286   1.260       .  A
O1282      V1284   1.895       .  S
O1282      C1285   1.264       .  A
V1283      V1284   2.085       .  T
C1285      C1439   1.484       .  S
C1286      C1376   1.472       .  S
C1287      C2569   1.483       .  S
C1288      C1366   1.472       .  S
O1289      V1297   1.908       .  S
O1289      C1299   1.267       .  A
O1290      V1297   1.908       .  S
O1290      C1300   1.266       .  A
O1291      V1297   1.880       .  S
O1291      C1301   1.261       .  A
O1292      V1297   1.879       .  S
O1292      C1302   1.257       .  A
O1293      V1298   1.911       .  S
O1293      C1302   1.269       .  A
O1294      V1298   1.913       .  S
O1294      C1301   1.268       .  A
O1295      V1298   1.885       .  S
O1295      C1300   1.259       .  A
O1296      V1298   1.890       .  S
O1296      C1299   1.263       .  A
V1297      V1298   2.086       .  T
C1299      C1819   1.490       .  S
C1300      C1369   1.464       .  S
C1301      C1399   1.479       .  S
C1302      C2119   1.476       .  S
O1303      V1311   1.916       .  S
O1303      C1313   1.271       .  A
O1304      V1311   1.915       .  S
O1304      C1314   1.268       .  A
O1305      V1311   1.879       .  S
O1305      C1315   1.260       .  A
O1306      V1311   1.874       .  S
O1306      C1316   1.258       .  A
O1307      V1312   1.917       .  S
O1307      C1316   1.269       .  A
O1308      V1312   1.915       .  S
O1308      C1315   1.269       .  A
O1309      V1312   1.883       .  S
O1309      C1314   1.258       .  A
O1310      V1312   1.890       .  S
O1310      C1313   1.260       .  A
V1311      V1312   2.085       .  T
C1313      C1409   1.493       .  S
C1314      C1389   1.468       .  S
C1315      C1356   1.484       .  S
C1316      C3109   1.478       .  S
O1317      V1325   1.919       .  S
O1317      C1327   1.270       .  A
O1318      V1325   1.918       .  S
O1318      C1328   1.270       .  A
O1319      V1325   1.878       .  S
O1319      C1329   1.260       .  A
O1320      V1325   1.875       .  S
O1320      C1330   1.259       .  A
O1321      V1326   1.916       .  S
O1321      C1330   1.269       .  A
O1322      V1326   1.920       .  S
O1322      C1329   1.270       .  A
O1323      V1326   1.880       .  S
O1323      C1328   1.259       .  A
O1324      V1326   1.890       .  S
O1324      C1327   1.260       .  A
V1325      V1326   2.084       .  T
C1327      C1959   1.481       .  S
C1328      C1346   1.477       .  S
C1329      C1379   1.488       .  S
C1330      C2686   1.487       .  S
O1331      V1339   1.915       .  S
O1331      C1341   1.269       .  A
O1332      V1339   1.912       .  S
O1332      C1342   1.269       .  A
O1333      V1339   1.884       .  S
O1333      C1343   1.259       .  A
O1334      V1339   1.884       .  S
O1334      C1344   1.260       .  A
O1335      V1340   1.911       .  S
O1335      C1344   1.267       .  A
O1336      V1340   1.906       .  S
O1336      C1343   1.268       .  A
O1337      V1340   1.887       .  S
O1337      C1342   1.260       .  A
O1338      V1340   1.894       .  S
O1338      C1341   1.264       .  A
V1339      V1340   2.082       .  T
C1341      C1759   1.492       .  S
C1342      C1359   1.476       .  S
C1343      C2776   1.470       .  S
C1344      C1349   1.468       .  S
C1345      C1346   1.406       .  A
C1345      C1350   1.396       .  A
C1345      H1352   1.083       .  S
C1346      C1347   1.409       .  A
C1347      C1348   1.403       .  A
C1347     Br1354   1.918       .  S
C1348      C1349   1.405       .  A
C1348      H1353   1.083       .  S
C1349      C1350   1.404       .  A
C1350     Br1351   1.920       .  S
C1355      C1356   1.410       .  A
C1355      C1360   1.395       .  A
C1355      H1362   1.084       .  S
C1356      C1357   1.410       .  A
C1357      C1358   1.402       .  A
C1357     Br1364   1.919       .  S
C1358      C1359   1.407       .  A
C1358      H1363   1.084       .  S
C1359      C1360   1.406       .  A
C1360     Br1361   1.922       .  S
C1365      C1366   1.403       .  A
C1365      C1370   1.393       .  A
C1365      H1372   1.084       .  S
C1366      C1367   1.412       .  A
C1367      C1368   1.400       .  A
C1367     Br1374   1.919       .  S
C1368      C1369   1.400       .  A
C1368      H1373   1.084       .  S
C1369      C1370   1.407       .  A
C1370     Br1371   1.921       .  S
C1375      C1376   1.406       .  A
C1375      C1380   1.404       .  A
C1375      H1382   1.084       .  S
C1376      C1377   1.404       .  A
C1377      C1378   1.394       .  A
C1377     Br1384   1.922       .  S
C1378      C1379   1.411       .  A
C1378      H1383   1.083       .  S
C1379      C1380   1.413       .  A
C1380     Br1381   1.919       .  S
C1385      C1386   1.406       .  A
C1385      C1390   1.401       .  A
C1385      H1392   1.084       .  S
C1386      C1387   1.409       .  A
C1387      C1388   1.396       .  A
C1387     Br1394   1.921       .  S
C1388      C1389   1.402       .  A
C1388      H1393   1.084       .  S
C1389      C1390   1.406       .  A
C1390     Br1391   1.918       .  S
C1395      C1396   1.409       .  A
C1395      C1400   1.404       .  A
C1395      H1402   1.083       .  S
C1396      C1397   1.408       .  A
C1397      C1398   1.393       .  A
C1397     Br1404   1.922       .  S
C1398      C1399   1.406       .  A
C1398      H1403   1.083       .  S
C1399      C1400   1.408       .  A
C1400     Br1401   1.918       .  S
C1405      C1406   1.403       .  A
C1405      C1410   1.401       .  A
C1405      H1412   1.083       .  S
C1406      C1407   1.420       .  A
C1407      C1408   1.402       .  A
C1407     Br1414   1.923       .  S
C1408      C1409   1.404       .  A
C1408      H1413   1.083       .  S
C1409      C1410   1.420       .  A
C1410     Br1411   1.923       .  S
C1415      C1416   1.400       .  A
C1415      C1420   1.402       .  A
C1415      H1422   1.084       .  S
C1416      C1417   1.414       .  A
C1417      C1418   1.394       .  A
C1417     Br1424   1.923       .  S
C1418      C1419   1.398       .  A
C1418      H1423   1.084       .  S
C1419      C1420   1.418       .  A
C1420     Br1421   1.922       .  S
C1425      C1426   1.402       .  A
C1425      C1430   1.401       .  A
C1425      H1432   1.084       .  S
C1426      C1427   1.406       .  A
C1427      C1428   1.397       .  A
C1427     Br1434   1.920       .  S
C1428      C1429   1.405       .  A
C1428      H1433   1.084       .  S
C1429      C1430   1.412       .  A
C1430     Br1431   1.920       .  S
C1435      C1436   1.409       .  A
C1435      C1440   1.401   1_545  A
C1435      H1442   1.083       .  S
C1436      C1437   1.416       .  A
C1437      C1438   1.399       .  A
C1437     Br1444   1.923       .  S
C1438      C1439   1.405   1_545  A
C1438      H1443   1.084       .  S
C1439      C1440   1.410       .  A
C1440     Br1441   1.920       .  S
C1445      C1446   1.408       .  A
C1445      C1450   1.391       .  A
C1445      H1452   1.083       .  S
C1446      C1447   1.413       .  A
C1447      C1448   1.405       .  A
C1447     Br1454   1.919       .  S
C1448      C1449   1.406       .  A
C1448      H1453   1.083       .  S
C1449      C1450   1.404       .  A
C1450     Br1451   1.922       .  S
C1455      C1456   1.402       .  A
C1455      C1460   1.404       .  A
C1455      H1462   1.083       .  S
C1456      C1457   1.417       .  A
C1457      C1458   1.394       .  A
C1457     Br1464   1.923       .  S
C1458      C1459   1.398       .  A
C1458      H1463   1.084       .  S
C1459      C1460   1.415       .  A
C1460     Br1461   1.920       .  S
C1465      C1466   1.405       .  A
C1465      C1470   1.407       .  A
C1465      H1472   1.083       .  S
C1466      C1467   1.416       .  A
C1467      C1468   1.391       .  A
C1467     Br1474   1.925       .  S
C1468      C1469   1.397       .  A
C1468      H1473   1.084       .  S
C1469      C1470   1.415       .  A
C1470     Br1471   1.919       .  S
C1475      C1476   1.405       .  A
C1475      C1480   1.395       .  A
C1475      H1482   1.084       .  S
C1476      C1477   1.410       .  A
C1477      C1478   1.402       .  A
C1477     Br1484   1.919       .  S
C1478      C1479   1.403       .  A
C1478      H1483   1.084       .  S
C1479      C1480   1.405       .  A
C1480     Br1481   1.919       .  S
C1485      C1486   1.406       .  A
C1485      C1490   1.401       .  A
C1485      H1492   1.084       .  S
C1486      C1487   1.417       .  A
C1487      C1488   1.399   1_455  A
C1487     Br1494   1.923       .  S
C1488      C1489   1.405       .  A
C1488      H1493   1.084       .  S
C1489      C1490   1.416   1_655  A
C1490     Br1491   1.922       .  S
C1495      C1496   1.398       .  A
C1495      C1500   1.394       .  A
C1495      H1502   1.084       .  S
C1496      C1497   1.411       .  A
C1497      C1498   1.400       .  A
C1497     Br1504   1.921       .  S
C1498      C1499   1.404       .  A
C1498      H1503   1.083       .  S
C1499      C1500   1.418       .  A
C1500     Br1501   1.924       .  S
C1505      C1506   1.409       .  A
C1505      C1510   1.401       .  A
C1505      H1512   1.084       .  S
C1506      C1507   1.416       .  A
C1507      C1508   1.402       .  A
C1507     Br1514   1.922       .  S
C1508      C1509   1.407       .  A
C1508      H1513   1.084       .  S
C1509      C1510   1.412       .  A
C1510     Br1511   1.921       .  S
C1515      C1516   1.400       .  A
C1515      C1520   1.405       .  A
C1515      H1522   1.084       .  S
C1516      C1517   1.409       .  A
C1517      C1518   1.391       .  A
C1517     Br1524   1.922       .  S
C1518      C1519   1.402       .  A
C1518      H1523   1.083       .  S
C1519      C1520   1.419       .  A
C1520     Br1521   1.920       .  S
C1525      C1526   1.402       .  A
C1525      C1530   1.398       .  A
C1525      H1532   1.082       .  S
C1526      C1527   1.412       .  A
C1527      C1528   1.395       .  A
C1527     Br1534   1.922       .  S
C1528      C1529   1.400       .  A
C1528      H1533   1.084       .  S
C1529      C1530   1.409       .  A
C1530     Br1531   1.919       .  S
C1535      C1536   1.401       .  A
C1535      C1540   1.402       .  A
C1535      H1542   1.083       .  S
C1536      C1537   1.413       .  A
C1537      C1538   1.393       .  A
C1537     Br1544   1.923       .  S
C1538      C1539   1.400       .  A
C1538      H1543   1.083       .  S
C1539      C1540   1.415       .  A
C1540     Br1541   1.921       .  S
C1545      C1546   1.402       .  A
C1545      C1550   1.393       .  A
C1545      H1552   1.084       .  S
C1546      C1547   1.412       .  A
C1547      C1548   1.404       .  A
C1547     Br1554   1.919       .  S
C1548      C1549   1.403       .  A
C1548      H1553   1.084       .  S
C1549      C1550   1.408       .  A
C1550     Br1551   1.922       .  S
C1555      C1556   1.402       .  A
C1555      C1560   1.397       .  A
C1555      H1562   1.083       .  S
C1556      C1557   1.420       .  A
C1557      C1558   1.400       .  A
C1557     Br1564   1.923       .  S
C1558      C1559   1.399       .  A
C1558      H1563   1.084       .  S
C1559      C1560   1.412       .  A
C1560     Br1561   1.921       .  S
C1565      C1566   1.404       .  A
C1565      C1570   1.402   1_556  A
C1565      H1572   1.083       .  S
C1566      C1567   1.423   1_556  A
C1567      C1568   1.399       .  A
C1567     Br1574   1.924       .  S
C1568      C1569   1.400       .  A
C1568      H1573   1.084       .  S
C1569      C1570   1.417       .  A
C1570     Br1571   1.921       .  S
C1575      C1576   1.402       .  A
C1575      C1580   1.391       .  A
C1575      H1582   1.083       .  S
C1576      C1577   1.420       .  A
C1577      C1578   1.403       .  A
C1577     Br1584   1.921       .  S
C1578      C1579   1.399       .  A
C1578      H1583   1.083       .  S
C1579      C1580   1.409       .  A
C1580     Br1581   1.922       .  S
C1585      C1586   1.400       .  A
C1585      C1590   1.398       .  A
C1585      H1592   1.084       .  S
C1586      C1587   1.408       .  A
C1587      C1588   1.398       .  A
C1587     Br1594   1.919       .  S
C1588      C1589   1.403       .  A
C1588      H1593   1.084       .  S
C1589      C1590   1.414       .  A
C1590     Br1591   1.922       .  S
C1595      C1596   1.403       .  A
C1595      C1600   1.401       .  A
C1595      H1602   1.083       .  S
C1596      C1597   1.419       .  A
C1597      C1598   1.397       .  A
C1597     Br1604   1.925       .  S
C1598      C1599   1.402       .  A
C1598      H1603   1.083       .  S
C1599      C1600   1.418       .  A
C1600     Br1601   1.922       .  S
C1605      C1606   1.409       .  A
C1605      C1610   1.393       .  A
C1605      H1612   1.083       .  S
C1606      C1607   1.412       .  A
C1607      C1608   1.401       .  A
C1607     Br1614   1.919       .  S
C1608      C1609   1.403       .  A
C1608      H1613   1.083       .  S
C1609      C1610   1.400       .  A
C1610     Br1611   1.920       .  S
C1615      C1616   1.400       .  A
C1615      C1620   1.396       .  A
C1615      H1622   1.084       .  S
C1616      C1617   1.411       .  A
C1617      C1618   1.402       .  A
C1617     Br1624   1.919       .  S
C1618      C1619   1.403       .  A
C1618      H1623   1.084       .  S
C1619      C1620   1.413       .  A
C1620     Br1621   1.922       .  S
C1625      C1626   1.397       .  A
C1625      C1630   1.393       .  A
C1625      H1632   1.084       .  S
C1626      C1627   1.412       .  A
C1627      C1628   1.403       .  A
C1627     Br1634   1.919       .  S
C1628      C1629   1.404       .  A
C1628      H1633   1.083       .  S
C1629      C1630   1.417       .  A
C1630     Br1631   1.923       .  S
C1635      C1636   1.398       .  A
C1635      C1640   1.397       .  A
C1635      H1642   1.084       .  S
C1636      C1637   1.413       .  A
C1637      C1638   1.394       .  A
C1637     Br1644   1.923       .  S
C1638      C1639   1.400       .  A
C1638      H1643   1.084       .  S
C1639      C1640   1.415       .  A
C1640     Br1641   1.922       .  S
C1645      C1646   1.403       .  A
C1645      C1650   1.400       .  A
C1645      H1652   1.083       .  S
C1646      C1647   1.419       .  A
C1647      C1648   1.402   1_554  A
C1647     Br1654   1.923       .  S
C1648      C1649   1.404       .  A
C1648      H1653   1.083       .  S
C1649      C1650   1.419   1_556  A
C1650     Br1651   1.923       .  S
C1655      C1656   1.411   1_455  A
C1655      C1660   1.401       .  A
C1655      H1662   1.083       .  S
C1656      C1657   1.417       .  A
C1657      C1658   1.403   1_655  A
C1657     Br1664   1.921       .  S
C1658      C1659   1.405       .  A
C1658      H1663   1.084       .  S
C1659      C1660   1.408       .  A
C1660     Br1661   1.921       .  S
C1665      C1666   1.403       .  A
C1665      C1670   1.404       .  A
C1665      H1672   1.083       .  S
C1666      C1667   1.416       .  A
C1667      C1668   1.399       .  A
C1667     Br1674   1.923       .  S
C1668      C1669   1.401       .  A
C1668      H1673   1.084       .  S
C1669      C1670   1.417       .  A
C1670     Br1671   1.921       .  S
C1675      C1676   1.410       .  A
C1675      C1680   1.401       .  A
C1675      H1682   1.083       .  S
C1676      C1677   1.410       .  A
C1677      C1678   1.394       .  A
C1677     Br1684   1.922       .  S
C1678      C1679   1.404       .  A
C1678      H1683   1.084       .  S
C1679      C1680   1.404       .  A
C1680     Br1681   1.918       .  S
C1685      C1686   1.403       .  A
C1685      C1690   1.408       .  A
C1685      H1692   1.083       .  S
C1686      C1687   1.412       .  A
C1687      C1688   1.395       .  A
C1687     Br1694   1.924       .  S
C1688      C1689   1.404       .  A
C1688      H1693   1.083       .  S
C1689      C1690   1.421       .  A
C1690     Br1691   1.921       .  S
C1695      C1696   1.402       .  A
C1695      C1700   1.400       .  A
C1695      H1702   1.084       .  S
C1696      C1697   1.404       .  A
C1697      C1698   1.396       .  A
C1697     Br1704   1.920       .  S
C1698      C1699   1.406       .  A
C1698      H1703   1.084       .  S
C1699      C1700   1.411       .  A
C1700     Br1701   1.920       .  S
C1705      C1706   1.405       .  A
C1705      C1710   1.396       .  A
C1705      H1712   1.083       .  S
C1706      C1707   1.420       .  A
C1707      C1708   1.400       .  A
C1707     Br1714   1.922       .  S
C1708      C1709   1.399       .  A
C1708      H1713   1.084       .  S
C1709      C1710   1.411       .  A
C1710     Br1711   1.923       .  S
C1715      C1716   1.409       .  A
C1715      C1720   1.401       .  A
C1715      H1722   1.084       .  S
C1716      C1717   1.415       .  A
C1717      C1718   1.402       .  A
C1717     Br1724   1.921       .  S
C1718      C1719   1.407       .  A
C1718      H1723   1.084       .  S
C1719      C1720   1.413       .  A
C1720     Br1721   1.922       .  S
C1725      C1726   1.404       .  A
C1725      C1730   1.404       .  A
C1725      H1732   1.084       .  S
C1726      C1727   1.400       .  A
C1727      C1728   1.395       .  A
C1727     Br1734   1.919       .  S
C1728      C1729   1.410       .  A
C1728      H1733   1.083       .  S
C1729      C1730   1.414       .  A
C1730     Br1731   1.920       .  S
C1735      C1736   1.408       .  A
C1735      C1740   1.403       .  A
C1735      H1742   1.084       .  S
C1736      C1737   1.408       .  A
C1737      C1738   1.390       .  A
C1737     Br1744   1.923       .  S
C1738      C1739   1.405       .  A
C1738      H1743   1.084       .  S
C1739      C1740   1.408       .  A
C1740     Br1741   1.918       .  S
C1745      C1746   1.410       .  A
C1745      C1750   1.401       .  A
C1745      H1752   1.084       .  S
C1746      C1747   1.411       .  A
C1747      C1748   1.398       .  A
C1747     Br1754   1.922   1_545  S
C1748      C1749   1.409       .  A
C1748      H1753   1.084       .  S
C1749      C1750   1.411       .  A
C1750     Br1751   1.920       .  S
C1755      C1756   1.411       .  A
C1755      C1760   1.404       .  A
C1755      H1762   1.084       .  S
C1756      C1757   1.413       .  A
C1757      C1758   1.401       .  A
C1757     Br1764   1.921       .  S
C1758      C1759   1.408       .  A
C1758      H1763   1.084       .  S
C1759      C1760   1.412       .  A
C1760     Br1761   1.920       .  S
C1765      C1766   1.399       .  A
C1765      C1770   1.396       .  A
C1765      H1772   1.084       .  S
C1766      C1767   1.414       .  A
C1767      C1768   1.400       .  A
C1767     Br1774   1.920       .  S
C1768      C1769   1.402       .  A
C1768      H1773   1.084       .  S
C1769      C1770   1.417       .  A
C1770     Br1771   1.924       .  S
C1775      C1776   1.409       .  A
C1775      C1780   1.400       .  A
C1775      H1782   1.083       .  S
C1776      C1777   1.405       .  A
C1777      C1778   1.393       .  A
C1777     Br1784   1.921       .  S
C1778      C1779   1.408       .  A
C1778      H1783   1.084       .  S
C1779      C1780   1.405       .  A
C1780     Br1781   1.918       .  S
C1785      C1786   1.399       .  A
C1785      C1790   1.395       .  A
C1785      H1792   1.084       .  S
C1786      C1787   1.409       .  A
C1787      C1788   1.400       .  A
C1787     Br1794   1.916       .  S
C1788      C1789   1.402       .  A
C1788      H1793   1.084       .  S
C1789      C1790   1.413       .  A
C1790     Br1791   1.923       .  S
C1795      C1796   1.409       .  A
C1795      C1800   1.404       .  A
C1795      H1802   1.083       .  S
C1796      C1797   1.410       .  A
C1797      C1798   1.399       .  A
C1797     Br1804   1.921       .  S
C1798      C1799   1.411       .  A
C1798      H1803   1.083       .  S
C1799      C1800   1.413       .  A
C1800     Br1801   1.920       .  S
C1805      C1806   1.404       .  A
C1805      C1810   1.397       .  A
C1805      H1812   1.084       .  S
C1806      C1807   1.412       .  A
C1807      C1808   1.400       .  A
C1807     Br1814   1.920       .  S
C1808      C1809   1.401       .  A
C1808      H1813   1.084       .  S
C1809      C1810   1.408       .  A
C1810     Br1811   1.921       .  S
C1815      C1816   1.406       .  A
C1815      C1820   1.400   1_455  A
C1815      H1822   1.084       .  S
C1816      C1817   1.409       .  A
C1817      C1818   1.398       .  A
C1817     Br1824   1.921       .  S
C1818      C1819   1.410   1_455  A
C1818      H1823   1.083       .  S
C1819      C1820   1.414       .  A
C1820     Br1821   1.921       .  S
C1825      C1826   1.406       .  A
C1825      C1830   1.398       .  A
C1825      H1832   1.083       .  S
C1826      C1827   1.412       .  A
C1827      C1828   1.402       .  A
C1827     Br1834   1.920       .  S
C1828      C1829   1.403       .  A
C1828      H1833   1.084       .  S
C1829      C1830   1.404       .  A
C1830     Br1831   1.918       .  S
C1835      C1836   1.407       .  A
C1835      C1840   1.400       .  A
C1835      H1842   1.083       .  S
C1836      C1837   1.405       .  A
C1837      C1838   1.390       .  A
C1837     Br1844   1.922       .  S
C1838      C1839   1.408       .  A
C1838      H1843   1.083       .  S
C1839      C1840   1.409       .  A
C1840     Br1841   1.919       .  S
C1845      C1846   1.405       .  A
C1845      C1850   1.400       .  A
C1845      H1852   1.083   1_545  S
C1846      C1847   1.422       .  A
C1847      C1848   1.402       .  A
C1847     Br1854   1.923       .  S
C1848      C1849   1.401       .  A
C1848      H1853   1.084       .  S
C1849      C1850   1.416       .  A
C1850     Br1851   1.923       .  S
C1855      C1856   1.405       .  A
C1855      C1860   1.396       .  A
C1855      H1862   1.085       .  S
C1856      C1857   1.409       .  A
C1857      C1858   1.400       .  A
C1857     Br1864   1.919       .  S
C1858      C1859   1.402       .  A
C1858      H1863   1.083       .  S
C1859      C1860   1.406       .  A
C1860     Br1861   1.920       .  S
C1865      C1866   1.402       .  A
C1865      C1870   1.401   1_556  A
C1865      H1872   1.084       .  S
C1866      C1867   1.417   1_556  A
C1867      C1868   1.403       .  A
C1867     Br1874   1.922       .  S
C1868      C1869   1.406       .  A
C1868      H1873   1.083       .  S
C1869      C1870   1.421       .  A
C1870     Br1871   1.923       .  S
C1875      C1876   1.399       .  A
C1875      C1880   1.396       .  A
C1875      H1882   1.084       .  S
C1876      C1877   1.410       .  A
C1877      C1878   1.402       .  A
C1877     Br1884   1.917       .  S
C1878      C1879   1.403       .  A
C1878      H1883   1.084       .  S
C1879      C1880   1.413       .  A
C1880     Br1881   1.921       .  S
C1885      C1886   1.398       .  A
C1885      C1890   1.394       .  A
C1885      H1892   1.084       .  S
C1886      C1887   1.415       .  A
C1887      C1888   1.402       .  A
C1887     Br1894   1.921       .  S
C1888      C1889   1.402       .  A
C1888      H1893   1.083       .  S
C1889      C1890   1.416       .  A
C1890     Br1891   1.921       .  S
C1895      C1896   1.405       .  A
C1895      C1900   1.396       .  A
C1895      H1902   1.084       .  S
C1896      C1897   1.417       .  A
C1897      C1898   1.401       .  A
C1897     Br1904   1.922       .  S
C1898      C1899   1.401       .  A
C1898      H1903   1.084       .  S
C1899      C1900   1.409       .  A
C1900     Br1901   1.920       .  S
C1905      C1906   1.401       .  A
C1905      C1910   1.399       .  A
C1905      H1912   1.085       .  S
C1906      C1907   1.402       .  A
C1907      C1908   1.402       .  A
C1907     Br1914   1.918       .  S
C1908      C1909   1.413       .  A
C1908      H1913   1.083       .  S
C1909      C1910   1.417       .  A
C1910     Br1911   1.921       .  S
C1915      C1916   1.410       .  A
C1915      C1920   1.399       .  A
C1915      H1922   1.083       .  S
C1916      C1917   1.412       .  A
C1917      C1918   1.400       .  A
C1917     Br1924   1.921       .  S
C1918      C1919   1.409       .  A
C1918      H1923   1.084       .  S
C1919      C1920   1.410       .  A
C1920     Br1921   1.921       .  S
C1925      C1926   1.402       .  A
C1925      C1930   1.402       .  A
C1925      H1932   1.084       .  S
C1926      C1927   1.415       .  A
C1927      C1928   1.388       .  A
C1927     Br1934   1.925       .  S
C1928      C1929   1.397       .  A
C1928      H1933   1.084       .  S
C1929      C1930   1.413       .  A
C1930     Br1931   1.919       .  S
C1935      C1936   1.404       .  A
C1935      C1940   1.403       .  A
C1935      H1942   1.084       .  S
C1936      C1937   1.403       .  A
C1937      C1938   1.395       .  A
C1937     Br1944   1.920       .  S
C1938      C1939   1.406       .  A
C1938      H1943   1.084       .  S
C1939      C1940   1.410       .  A
C1940     Br1941   1.919       .  S
C1945      C1946   1.402       .  A
C1945      C1950   1.401   1_565  A
C1945      H1952   1.083       .  S
C1946      C1947   1.415   1_565  A
C1947      C1948   1.399       .  A
C1947     Br1954   1.923       .  S
C1948      C1949   1.406       .  A
C1948      H1953   1.083       .  S
C1949      C1950   1.420       .  A
C1950     Br1951   1.923       .  S
C1955      C1956   1.405       .  A
C1955      C1960   1.400       .  A
C1955      H1962   1.083       .  S
C1956      C1957   1.420       .  A
C1957      C1958   1.404       .  A
C1957     Br1964   1.922       .  S
C1958      C1959   1.400       .  A
C1958      H1963   1.083       .  S
C1959      C1960   1.413       .  A
C1960     Br1961   1.922       .  S
C1965      C1966   1.407       .  A
C1965      C1970   1.392       .  A
C1965      H1972   1.083       .  S
C1966      C1967   1.410       .  A
C1967      C1968   1.404       .  A
C1967     Br1974   1.919       .  S
C1968      C1969   1.408       .  A
C1968      H1973   1.083       .  S
C1969      C1970   1.406       .  A
C1970     Br1971   1.921       .  S
C1975      C1976   1.411   1_554  A
C1975      C1980   1.403       .  A
C1975      H1982   1.083       .  S
C1976      C1977   1.414       .  A
C1977      C1978   1.401   1_556  A
C1977     Br1984   1.921       .  S
C1978      C1979   1.407       .  A
C1978      H1983   1.084       .  S
C1979      C1980   1.412       .  A
C1980     Br1981   1.921       .  S
C1985      C1986   1.406       .  A
C1985      C1990   1.401       .  A
C1985      H1992   1.083       .  S
C1986      C1987   1.422       .  A
C1987      C1988   1.405       .  A
C1987     Br1994   1.922       .  S
C1988      C1989   1.401       .  A
C1988      H1993   1.083       .  S
C1989      C1990   1.412       .  A
C1990     Br1991   1.922       .  S
C1995      C1996   1.404       .  A
C1995      C2000   1.403       .  A
C1995      H2002   1.084       .  S
C1996      C1997   1.405       .  A
C1997      C1998   1.398       .  A
C1997     Br2004   1.919       .  S
C1998      C1999   1.406       .  A
C1998      H2003   1.084       .  S
C1999      C2000   1.412       .  A
C2000     Br2001   1.920       .  S
C2005      C2006   1.408       .  A
C2005      C2010   1.405       .  A
C2005      H2012   1.083       .  S
C2006      C2007   1.405       .  A
C2007      C2008   1.392       .  A
C2007     Br2014   1.921       .  S
C2008      C2009   1.408       .  A
C2008      H2013   1.083       .  S
C2009      C2010   1.410       .  A
C2010     Br2011   1.919       .  S
C2015      C2016   1.401       .  A
C2015      C2020   1.399   1_655  A
C2015      H2022   1.084       .  S
C2016      C2017   1.415   1_655  A
C2017      C2018   1.403       .  A
C2017     Br2024   1.922       .  S
C2018      C2019   1.407       .  A
C2018      H2023   1.083       .  S
C2019      C2020   1.421       .  A
C2020     Br2021   1.924       .  S
C2025      C2026   1.403       .  A
C2025      C2030   1.396       .  A
C2025      H2032   1.084       .  S
C2026      C2027   1.414       .  A
C2027      C2028   1.404       .  A
C2027     Br2034   1.919       .  S
C2028      C2029   1.402       .  A
C2028      H2033   1.084       .  S
C2029      C2030   1.408       .  A
C2030     Br2031   1.921       .  S
C2035      C2036   1.402       .  A
C2035      C2040   1.404       .  A
C2035      H2042   1.083       .  S
C2036      C2037   1.412       .  A
C2037      C2038   1.396       .  A
C2037     Br2044   1.923       .  S
C2038      C2039   1.404       .  A
C2038      H2043   1.083       .  S
C2039      C2040   1.419       .  A
C2040     Br2041   1.921       .  S
C2045      C2046   1.408       .  A
C2045      C2050   1.394       .  A
C2045      H2052   1.083       .  S
C2046      C2047   1.408       .  A
C2047      C2048   1.402       .  A
C2047     Br2054   1.918       .  S
C2048      C2049   1.409       .  A
C2048      H2053   1.083       .  S
C2049      C2050   1.407       .  A
C2050     Br2051   1.922       .  S
C2055      C2056   1.402       .  A
C2055      C2060   1.402       .  A
C2055      H2062   1.083       .  S
C2056      C2057   1.405       .  A
C2057      C2058   1.394       .  A
C2057     Br2064   1.920       .  S
C2058      C2059   1.405       .  A
C2058      H2063   1.084       .  S
C2059      C2060   1.413       .  A
C2060     Br2061   1.919       .  S
C2065      C2066   1.396       .  A
C2065      C2070   1.395       .  A
C2065      H2072   1.083       .  S
C2066      C2067   1.412       .  A
C2067      C2068   1.393       .  A
C2067     Br2074   1.922       .  S
C2068      C2069   1.402       .  A
C2068      H2073   1.083       .  S
C2069      C2070   1.420       .  A
C2070     Br2071   1.923       .  S
C2075      C2076   1.412       .  A
C2075      C2080   1.396       .  A
C2075      H2082   1.083       .  S
C2076      C2077   1.410       .  A
C2077      C2078   1.391       .  A
C2077     Br2084   1.923       .  S
C2078      C2079   1.407       .  A
C2078      H2083   1.084       .  S
C2079      C2080   1.404       .  A
C2080     Br2081   1.920       .  S
C2085      C2086   1.414       .  A
C2085      C2090   1.400       .  A
C2085      H2092   1.083   1_565  S
C2086      C2087   1.414       .  A
C2087      C2088   1.395       .  A
C2087     Br2094   1.922       .  S
C2088      C2089   1.399       .  A
C2088      H2093   1.083       .  S
C2089      C2090   1.400       .  A
C2090     Br2091   1.918       .  S
C2095      C2096   1.399       .  A
C2095      C2100   1.399       .  A
C2095      H2102   1.083       .  S
C2096      C2097   1.408       .  A
C2097      C2098   1.392       .  A
C2097     Br2104   1.922       .  S
C2098      C2099   1.401       .  A
C2098      H2103   1.083       .  S
C2099      C2100   1.414       .  A
C2100     Br2101   1.920       .  S
C2105      C2106   1.402       .  A
C2105      C2110   1.392       .  A
C2105      H2112   1.083       .  S
C2106      C2107   1.424       .  A
C2107      C2108   1.402       .  A
C2107     Br2114   1.923       .  S
C2108      C2109   1.397       .  A
C2108      H2113   1.084       .  S
C2109      C2110   1.409       .  A
C2110     Br2111   1.921       .  S
C2115      C2116   1.399       .  A
C2115      C2120   1.400       .  A
C2115      H2122   1.084       .  S
C2116      C2117   1.410       .  A
C2117      C2118   1.394       .  A
C2117     Br2124   1.921       .  S
C2118      C2119   1.401       .  A
C2118      H2123   1.084       .  S
C2119      C2120   1.417       .  A
C2120     Br2121   1.922       .  S
C2125      C2126   1.404       .  A
C2125      C2130   1.400       .  A
C2125      H2132   1.084   1_655  S
C2126      C2127   1.410       .  A
C2127      C2128   1.403       .  A
C2127     Br2134   1.919       .  S
C2128      C2129   1.404       .  A
C2128      H2133   1.082       .  S
C2129      C2130   1.410       .  A
C2130     Br2131   1.919   1_655  S
C2135      C2136   1.413       .  A
C2135      C2140   1.397       .  A
C2135      H2142   1.083       .  S
C2136      C2137   1.412       .  A
C2137      C2138   1.395       .  A
C2137     Br2144   1.923       .  S
C2138      C2139   1.406       .  A
C2138      H2143   1.084       .  S
C2139      C2140   1.403       .  A
C2140     Br2141   1.920       .  S
C2145      C2146   1.405       .  A
C2145      C2150   1.405       .  A
C2145      H2152   1.083       .  S
C2146      C2147   1.419       .  A
C2147      C2148   1.392       .  A
C2147     Br2154   1.922   1_565  S
C2148      C2149   1.395       .  A
C2148      H2153   1.084       .  S
C2149      C2150   1.412       .  A
C2150     Br2151   1.919       .  S
C2155      C2156   1.399       .  A
C2155      C2160   1.400       .  A
C2155      H2162   1.083       .  S
C2156      C2157   1.411       .  A
C2157      C2158   1.392       .  A
C2157     Br2164   1.921       .  S
C2158      C2159   1.401       .  A
C2158      H2163   1.083       .  S
C2159      C2160   1.419       .  A
C2160     Br2161   1.922       .  S
C2165      C2166   1.404       .  A
C2165      C2170   1.397       .  A
C2165      H2172   1.084       .  S
C2166      C2167   1.403       .  A
C2167      C2168   1.401       .  A
C2167     Br2174   1.918       .  S
C2168      C2169   1.413       .  A
C2168      H2173   1.083       .  S
C2169      C2170   1.412       .  A
C2170     Br2171   1.919       .  S
C2175      C2176   1.403       .  A
C2175      C2180   1.394       .  A
C2175      H2182   1.084       .  S
C2176      C2177   1.409       .  A
C2177      C2178   1.403       .  A
C2177     Br2184   1.919       .  S
C2178      C2179   1.404       .  A
C2178      H2183   1.084       .  S
C2179      C2180   1.407       .  A
C2180     Br2181   1.921       .  S
C2185      C2186   1.408       .  A
C2185      C2190   1.394       .  A
C2185      H2192   1.084       .  S
C2186      C2187   1.408       .  A
C2187      C2188   1.394       .  A
C2187     Br2194   1.922       .  S
C2188      C2189   1.409       .  A
C2188      H2193   1.084       .  S
C2189      C2190   1.409       .  A
C2190     Br2191   1.922       .  S
C2195      C2196   1.408       .  A
C2195      C2200   1.400       .  A
C2195      H2202   1.084       .  S
C2196      C2197   1.412   1_655  A
C2197      C2198   1.407   1_545  A
C2197     Br2204   1.920   1_545  S
C2198      C2199   1.413   1_465  A
C2198      H2203   1.083       .  S
C2199      C2200   1.415       .  A
C2200     Br2201   1.922       .  S
C2205      C2206   1.410       .  A
C2205      C2210   1.394       .  A
C2205      H2212   1.084       .  S
C2206      C2207   1.413       .  A
C2207      C2208   1.396       .  A
C2207     Br2214   1.923       .  S
C2208      C2209   1.405       .  A
C2208      H2213   1.084       .  S
C2209      C2210   1.404       .  A
C2210     Br2211   1.921       .  S
C2215      C2216   1.401       .  A
C2215      C2220   1.392       .  A
C2215      H2222   1.083       .  S
C2216      C2217   1.419       .  A
C2217      C2218   1.400       .  A
C2217     Br2224   1.922       .  S
C2218      C2219   1.398       .  A
C2218      H2223   1.084       .  S
C2219      C2220   1.411       .  A
C2220     Br2221   1.922       .  S
C2225      C2226   1.399       .  A
C2225      C2230   1.400       .  A
C2225      H2232   1.084       .  S
C2226      C2227   1.412       .  A
C2227      C2228   1.394       .  A
C2227     Br2234   1.923       .  S
C2228      C2229   1.403       .  A
C2228      H2233   1.084       .  S
C2229      C2230   1.420       .  A
C2230     Br2231   1.922       .  S
C2235      C2236   1.400       .  A
C2235      C2240   1.395       .  A
C2235      H2242   1.084       .  S
C2236      C2237   1.414       .  A
C2237      C2238   1.396       .  A
C2237     Br2244   1.921       .  S
C2238      C2239   1.399       .  A
C2238      H2243   1.084       .  S
C2239      C2240   1.414       .  A
C2240     Br2241   1.921   1_565  S
C2245      C2246   1.398       .  A
C2245      C2250   1.398       .  A
C2245      H2252   1.090       .  S
C2246      C2247   1.408       .  A
C2247      C2248   1.395       .  A
C2247     Br2254   1.919       .  S
C2248      C2249   1.400       .  A
C2248      H2253   1.089       .  S
C2249      C2250   1.413       .  A
C2250     Br2251   1.920       .  S
C2255      C2256   1.400       .  A
C2255      C2260   1.402       .  A
C2255      H2262   1.083   1_455  S
C2256      C2257   1.413   1_545  A
C2257      C2258   1.403   1_565  A
C2257     Br2264   1.920       .  S
C2258      C2259   1.405       .  A
C2258      H2263   1.083   1_545  S
C2259      C2260   1.420       .  A
C2260     Br2261   1.922   1_455  S
C2265      C2266   1.408       .  A
C2265      C2270   1.401       .  A
C2265      H2272   1.083       .  S
C2266      C2267   1.407       .  A
C2267      C2268   1.397       .  A
C2267     Br2274   1.921       .  S
C2268      C2269   1.408       .  A
C2268      H2273   1.083       .  S
C2269      C2270   1.408       .  A
C2270     Br2271   1.919       .  S
C2275      C2276   1.408       .  A
C2275      C2280   1.394       .  A
C2275      H2282   1.083       .  S
C2276      C2277   1.409       .  A
C2277      C2278   1.396       .  A
C2277     Br2284   1.922       .  S
C2278      C2279   1.408       .  A
C2278      H2283   1.083       .  S
C2279      C2280   1.411       .  A
C2280     Br2281   1.923       .  S
C2285      C2286   1.405   1_545  A
C2285      C2290   1.395       .  A
C2285      H2292   1.084       .  S
C2286      C2287   1.415       .  A
C2287      C2288   1.406       .  A
C2287     Br2294   1.919       .  S
C2288      C2289   1.403       .  A
C2288      H2293   1.084       .  S
C2289      C2290   1.407   1_565  A
C2290     Br2291   1.922       .  S
C2295      C2296   1.409       .  A
C2295      C2300   1.394       .  A
C2295      H2302   1.083       .  S
C2296      C2297   1.414       .  A
C2297      C2298   1.400       .  A
C2297     Br2304   1.922       .  S
C2298      C2299   1.406       .  A
C2298      H2303   1.084       .  S
C2299      C2300   1.406       .  A
C2300     Br2301   1.921       .  S
C2305      C2306   1.405       .  A
C2305      C2310   1.402       .  A
C2305      H2312   1.084       .  S
C2306      C2307   1.406       .  A
C2307      C2308   1.397       .  A
C2307     Br2314   1.920   1_655  S
C2308      C2309   1.405       .  A
C2308      H2313   1.084   1_655  S
C2309      C2310   1.409       .  A
C2310     Br2311   1.919       .  S
C2315      C2316   1.409       .  A
C2315      C2320   1.393       .  A
C2315      H2322   1.083       .  S
C2316      C2317   1.414       .  A
C2317      C2318   1.401       .  A
C2317     Br2324   1.921       .  S
C2318      C2319   1.404       .  A
C2318      H2323   1.083       .  S
C2319      C2320   1.404       .  A
C2320     Br2321   1.922       .  S
C2325      C2326   1.409       .  A
C2325      C2330   1.393       .  A
C2325      H2332   1.084       .  S
C2326      C2327   1.407       .  A
C2327      C2328   1.398       .  A
C2327     Br2334   1.921       .  S
C2328      C2329   1.411       .  A
C2328      H2333   1.083       .  S
C2329      C2330   1.408       .  A
C2330     Br2331   1.922       .  S
C2335      C2336   1.408       .  A
C2335      C2340   1.402       .  A
C2335      H2342   1.084       .  S
C2336      C2337   1.407   1_556  A
C2337      C2338   1.400       .  A
C2337     Br2344   1.920       .  S
C2338      C2339   1.412       .  A
C2338      H2343   1.083       .  S
C2339      C2340   1.415   1_554  A
C2340     Br2341   1.921   1_545  S
C2345      C2346   1.410       .  A
C2345      C2350   1.394       .  A
C2345      H2352   1.083       .  S
C2346      C2347   1.412       .  A
C2347      C2348   1.399       .  A
C2347     Br2354   1.921       .  S
C2348      C2349   1.408       .  A
C2348      H2353   1.084       .  S
C2349      C2350   1.407       .  A
C2350     Br2351   1.922       .  S
C2355      C2356   1.398       .  A
C2355      C2360   1.403       .  A
C2355      H2362   1.084       .  S
C2356      C2357   1.412       .  A
C2357      C2358   1.393       .  A
C2357     Br2364   1.922       .  S
C2358      C2359   1.402       .  A
C2358      H2363   1.084       .  S
C2359      C2360   1.421       .  A
C2360     Br2361   1.921       .  S
C2365      C2366   1.402       .  A
C2365      C2370   1.394       .  A
C2365      H2372   1.083       .  S
C2366      C2367   1.420       .  A
C2367      C2368   1.395       .  A
C2367     Br2374   1.924       .  S
C2368      C2369   1.397       .  A
C2368      H2373   1.084       .  S
C2369      C2370   1.413       .  A
C2370     Br2371   1.924       .  S
C2375      C2376   1.400       .  A
C2375      C2380   1.395       .  A
C2375      H2382   1.084       .  S
C2376      C2377   1.409       .  A
C2377      C2378   1.403       .  A
C2377     Br2384   1.919       .  S
C2378      C2379   1.403       .  A
C2378      H2383   1.084       .  S
C2379      C2380   1.412       .  A
C2380     Br2381   1.923       .  S
C2385      C2386   1.407       .  A
C2385      C2390   1.395       .  A
C2385      H2392   1.084       .  S
C2386      C2387   1.405       .  A
C2387      C2388   1.397       .  A
C2387     Br2394   1.921       .  S
C2388      C2389   1.412       .  A
C2388      H2393   1.083       .  S
C2389      C2390   1.412       .  A
C2390     Br2391   1.922       .  S
C2395      C2396   1.403       .  A
C2395      C2400   1.400       .  A
C2395      H2402   1.066       .  S
C2396      C2397   1.406   1_565  A
C2397      C2398   1.397       .  A
C2397     Br2404   1.920       .  S
C2398      C2399   1.404   1_545  A
C2398      H2403   1.081       .  S
C2399      C2400   1.407       .  A
C2400     Br2401   1.920       .  S
C2405      C2406   1.411       .  A
C2405      C2410   1.397       .  A
C2405      H2412   1.084       .  S
C2406      C2407   1.407       .  A
C2407      C2408   1.393       .  A
C2407     Br2414   1.920       .  S
C2408      C2409   1.410       .  A
C2408      H2413   1.084       .  S
C2409      C2410   1.407       .  A
C2410     Br2411   1.921       .  S
C2415      C2416   1.401   1_556  A
C2415      C2420   1.397       .  A
C2415      H2422   1.084       .  S
C2416      C2417   1.418       .  A
C2417      C2418   1.402       .  A
C2417     Br2424   1.923       .  S
C2418      C2419   1.405   1_554  A
C2418      H2423   1.083       .  S
C2419      C2420   1.420       .  A
C2420     Br2421   1.924       .  S
C2425      C2426   1.400       .  A
C2425      C2430   1.393       .  A
C2425      H2432   1.083       .  S
C2426      C2427   1.418       .  A
C2427      C2428   1.400       .  A
C2427     Br2434   1.922       .  S
C2428      C2429   1.398       .  A
C2428      H2433   1.083       .  S
C2429      C2430   1.412       .  A
C2430     Br2431   1.922       .  S
C2435      C2436   1.402       .  A
C2435      C2440   1.389       .  A
C2435      H2442   1.084       .  S
C2436      C2437   1.418       .  A
C2437      C2438   1.397       .  A
C2437     Br2444   1.922       .  S
C2438      C2439   1.397       .  A
C2438      H2443   1.084       .  S
C2439      C2440   1.410       .  A
C2440     Br2441   1.924       .  S
C2445      C2446   1.398       .  A
C2445      C2450   1.394       .  A
C2445      H2452   1.084       .  S
C2446      C2447   1.410       .  A
C2447      C2448   1.400       .  A
C2447     Br2454   1.919       .  S
C2448      C2449   1.402       .  A
C2448      H2453   1.084       .  S
C2449      C2450   1.412       .  A
C2450     Br2451   1.918       .  S
C2455      C2456   1.397       .  A
C2455      C2460   1.396       .  A
C2455      H2462   1.084       .  S
C2456      C2457   1.414       .  A
C2457      C2458   1.402       .  A
C2457     Br2464   1.921       .  S
C2458      C2459   1.402       .  A
C2458      H2463   1.083       .  S
C2459      C2460   1.418       .  A
C2460     Br2461   1.924   1_565  S
C2465      C2466   1.403       .  A
C2465      C2470   1.396       .  A
C2465      H2472   1.084       .  S
C2466      C2467   1.416       .  A
C2467      C2468   1.395       .  A
C2467     Br2474   1.922       .  S
C2468      C2469   1.397       .  A
C2468      H2473   1.084       .  S
C2469      C2470   1.410       .  A
C2470     Br2471   1.922       .  S
C2475      C2476   1.410       .  A
C2475      C2480   1.400       .  A
C2475      H2482   1.084       .  S
C2476      C2477   1.413       .  A
C2477      C2478   1.400       .  A
C2477     Br2484   1.921       .  S
C2478      C2479   1.409       .  A
C2478      H2483   1.084       .  S
C2479      C2480   1.410       .  A
C2480     Br2481   1.921       .  S
C2485      C2486   1.403       .  A
C2485      C2490   1.397       .  A
C2485      H2492   1.083       .  S
C2486      C2487   1.417       .  A
C2487      C2488   1.396       .  A
C2487     Br2494   1.922       .  S
C2488      C2489   1.396       .  A
C2488      H2493   1.084       .  S
C2489      C2490   1.411       .  A
C2490     Br2491   1.922       .  S
C2495      C2496   1.404       .  A
C2495      C2500   1.396   1_545  A
C2495      H2502   1.083       .  S
C2496      C2497   1.418       .  A
C2497      C2498   1.403       .  A
C2497     Br2504   1.921       .  S
C2498      C2499   1.400       .  A
C2498      H2503   1.083       .  S
C2499      C2500   1.410   1_545  A
C2500     Br2501   1.922       .  S
C2505      C2506   1.411       .  A
C2505      C2510   1.400       .  A
C2505      H2512   1.083       .  S
C2506      C2507   1.412       .  A
C2507      C2508   1.396       .  A
C2507     Br2514   1.922       .  S
C2508      C2509   1.405       .  A
C2508      H2513   1.084       .  S
C2509      C2510   1.405       .  A
C2510     Br2511   1.919       .  S
C2515      C2516   1.408       .  A
C2515      C2520   1.399       .  A
C2515      H2522   1.084       .  S
C2516      C2517   1.404       .  A
C2517      C2518   1.392       .  A
C2517     Br2524   1.922       .  S
C2518      C2519   1.412       .  A
C2518      H2523   1.083       .  S
C2519      C2520   1.411       .  A
C2520     Br2521   1.921       .  S
C2525      C2526   1.403   1_565  A
C2525      C2530   1.395       .  A
C2525      H2532   1.083       .  S
C2526      C2527   1.420       .  A
C2527      C2528   1.403       .  A
C2527     Br2534   1.922       .  S
C2528      C2529   1.400       .  A
C2528      H2533   1.084       .  S
C2529      C2530   1.411   1_545  A
C2530     Br2531   1.920       .  S
C2535      C2536   1.399       .  A
C2535      C2540   1.398       .  A
C2535      H2542   1.084       .  S
C2536      C2537   1.408       .  A
C2537      C2538   1.395       .  A
C2537     Br2544   1.921       .  S
C2538      C2539   1.403       .  A
C2538      H2543   1.084       .  S
C2539      C2540   1.414       .  A
C2540     Br2541   1.921       .  S
C2545      C2546   1.403       .  A
C2545      C2550   1.400       .  A
C2545      H2552   1.084       .  S
C2546      C2547   1.407       .  A
C2547      C2548   1.396       .  A
C2547     Br2554   1.921       .  S
C2548      C2549   1.404       .  A
C2548      H2553   1.084       .  S
C2549      C2550   1.409       .  A
C2550     Br2551   1.919       .  S
C2555      C2556   1.407       .  A
C2555      C2560   1.403       .  A
C2555      H2562   1.083       .  S
C2556      C2557   1.405       .  A
C2557      C2558   1.392       .  A
C2557     Br2564   1.923       .  S
C2558      C2559   1.409       .  A
C2558      H2563   1.083       .  S
C2559      C2560   1.411       .  A
C2560     Br2561   1.919       .  S
C2565      C2566   1.407       .  A
C2565      C2570   1.397       .  A
C2565      H2572   1.084       .  S
C2566      C2567   1.408       .  A
C2567      C2568   1.395       .  A
C2567     Br2574   1.918       .  S
C2568      C2569   1.409       .  A
C2568      H2573   1.083       .  S
C2569      C2570   1.413       .  A
C2570     Br2571   1.922       .  S
C2575      C2576   1.401   1_545  A
C2575      C2580   1.401       .  A
C2575      H2582   1.084       .  S
C2576      C2577   1.415       .  A
C2577      C2578   1.403   1_565  A
C2577     Br2584   1.918       .  S
C2578      C2579   1.406       .  A
C2578      H2583   1.083   1_545  S
C2579      C2580   1.420       .  A
C2580     Br2581   1.923       .  S
C2585      C2586   1.403       .  A
C2585      C2590   1.394       .  A
C2585      H2592   1.084   1_565  S
C2586      C2587   1.413       .  A
C2587      C2588   1.402       .  A
C2587     Br2594   1.919       .  S
C2588      C2589   1.402       .  A
C2588      H2593   1.084       .  S
C2589      C2590   1.408       .  A
C2590     Br2591   1.922   1_565  S
C2595      C2596   1.410       .  A
C2595      C2600   1.395       .  A
C2595      H2602   1.084       .  S
C2596      C2597   1.414       .  A
C2597      C2598   1.398       .  A
C2597     Br2604   1.921       .  S
C2598      C2599   1.405       .  A
C2598      H2603   1.084       .  S
C2599      C2600   1.404       .  A
C2600     Br2601   1.921       .  S
C2605      C2606   1.406       .  A
C2605      C2610   1.402       .  A
C2605      H2612   1.083       .  S
C2606      C2607   1.408       .  A
C2607      C2608   1.398       .  A
C2607     Br2614   1.922       .  S
C2608      C2609   1.409       .  A
C2608      H2613   1.083       .  S
C2609      C2610   1.412       .  A
C2610     Br2611   1.920       .  S
C2615      C2616   1.402       .  A
C2615      C2620   1.395       .  A
C2615      H2622   1.084       .  S
C2616      C2617   1.411       .  A
C2617      C2618   1.401       .  A
C2617     Br2624   1.920       .  S
C2618      C2619   1.403       .  A
C2618      H2623   1.084       .  S
C2619      C2620   1.409       .  A
C2620     Br2621   1.922       .  S
C2625      C2626   1.397       .  A
C2625      C2630   1.397       .  A
C2625      H2632   1.084       .  S
C2626      C2627   1.409       .  A
C2627      C2628   1.390       .  A
C2627     Br2634   1.923       .  S
C2628      C2629   1.402       .  A
C2628      H2633   1.083       .  S
C2629      C2630   1.418       .  A
C2630     Br2631   1.923       .  S
C2635      C2636   1.405       .  A
C2635      C2640   1.401       .  A
C2635      H2642   1.084       .  S
C2636      C2637   1.403       .  A
C2637      C2638   1.395       .  A
C2637     Br2644   1.921       .  S
C2638      C2639   1.410       .  A
C2638      H2643   1.083       .  S
C2639      C2640   1.413       .  A
C2640     Br2641   1.920       .  S
C2645      C2646   1.404       .  A
C2645      C2650   1.398       .  A
C2645      H2652   1.084       .  S
C2646      C2647   1.404       .  A
C2647      C2648   1.402       .  A
C2647     Br2654   1.918       .  S
C2648      C2649   1.412       .  A
C2648      H2653   1.083       .  S
C2649      C2650   1.414       .  A
C2650     Br2651   1.922       .  S
C2655      C2656   1.407       .  A
C2655      C2660   1.394       .  A
C2655      H2662   1.084       .  S
C2656      C2657   1.408       .  A
C2657      C2658   1.398       .  A
C2657     Br2664   1.920       .  S
C2658      C2659   1.410       .  A
C2658      H2663   1.083       .  S
C2659      C2660   1.411       .  A
C2660     Br2661   1.923       .  S
C2665      C2666   1.403       .  A
C2665      C2670   1.401       .  A
C2665      H2672   1.084       .  S
C2666      C2667   1.416       .  A
C2667      C2668   1.397       .  A
C2667     Br2674   1.923       .  S
C2668      C2669   1.405       .  A
C2668      H2673   1.083       .  S
C2669      C2670   1.418       .  A
C2670     Br2671   1.922       .  S
C2675      C2676   1.403       .  A
C2675      C2680   1.393       .  A
C2675      H2682   1.084       .  S
C2676      C2677   1.412       .  A
C2677      C2678   1.404       .  A
C2677     Br2684   1.918       .  S
C2678      C2679   1.403       .  A
C2678      H2683   1.084       .  S
C2679      C2680   1.407       .  A
C2680     Br2681   1.921       .  S
C2685      C2686   1.412       .  A
C2685      C2690   1.395       .  A
C2685      H2692   1.083       .  S
C2686      C2687   1.412       .  A
C2687      C2688   1.400       .  A
C2687     Br2694   1.921       .  S
C2688      C2689   1.408       .  A
C2688      H2693   1.084       .  S
C2689      C2690   1.405       .  A
C2690     Br2691   1.921       .  S
C2695      C2696   1.402       .  A
C2695      C2700   1.397       .  A
C2695      H2702   1.083       .  S
C2696      C2697   1.409       .  A
C2697      C2698   1.402       .  A
C2697     Br2704   1.919       .  S
C2698      C2699   1.404       .  A
C2698      H2703   1.084       .  S
C2699      C2700   1.408       .  A
C2700     Br2701   1.920       .  S
C2705      C2706   1.413       .  A
C2705      C2710   1.392       .  A
C2705      H2712   1.083       .  S
C2706      C2707   1.411       .  A
C2707      C2708   1.396       .  A
C2707     Br2714   1.921       .  S
C2708      C2709   1.407       .  A
C2708      H2713   1.084       .  S
C2709      C2710   1.402       .  A
C2710     Br2711   1.921       .  S
C2715      C2716   1.399       .  A
C2715      C2720   1.402       .  A
C2715      H2722   1.083       .  S
C2716      C2717   1.415       .  A
C2717      C2718   1.394       .  A
C2717     Br2724   1.924       .  S
C2718      C2719   1.400       .  A
C2718      H2723   1.083       .  S
C2719      C2720   1.420       .  A
C2720     Br2721   1.921       .  S
C2725      C2726   1.397       .  A
C2725      C2730   1.395       .  A
C2725      H2732   1.083       .  S
C2726      C2727   1.407       .  A
C2727      C2728   1.392       .  A
C2727     Br2734   1.920       .  S
C2728      C2729   1.400       .  A
C2728      H2733   1.083       .  S
C2729      C2730   1.412       .  A
C2730     Br2731   1.921       .  S
C2735      C2736   1.411       .  A
C2735      C2740   1.403       .  A
C2735      H2742   1.083       .  S
C2736      C2737   1.414       .  A
C2737      C2738   1.396       .  A
C2737     Br2744   1.923       .  S
C2738      C2739   1.406       .  A
C2738      H2743   1.084       .  S
C2739      C2740   1.409       .  A
C2740     Br2741   1.919       .  S
C2745      C2746   1.401       .  A
C2745      C2750   1.401       .  A
C2745      H2752   1.084       .  S
C2746      C2747   1.408       .  A
C2747      C2748   1.393       .  A
C2747     Br2754   1.922       .  S
C2748      C2749   1.402       .  A
C2748      H2753   1.084       .  S
C2749      C2750   1.414       .  A
C2750     Br2751   1.920       .  S
C2755      C2756   1.405       .  A
C2755      C2760   1.402       .  A
C2755      H2762   1.084       .  S
C2756      C2757   1.405       .  A
C2757      C2758   1.391       .  A
C2757     Br2764   1.923       .  S
C2758      C2759   1.408       .  A
C2758      H2763   1.084       .  S
C2759      C2760   1.411       .  A
C2760     Br2761   1.919       .  S
C2765      C2766   1.410       .  A
C2765      C2770   1.399       .  A
C2765      H2772   1.083       .  S
C2766      C2767   1.408       .  A
C2767      C2768   1.395       .  A
C2767     Br2774   1.922       .  S
C2768      C2769   1.412       .  A
C2768      H2773   1.083       .  S
C2769      C2770   1.410       .  A
C2770     Br2771   1.921       .  S
C2775      C2776   1.398       .  A
C2775      C2780   1.396       .  A
C2775      H2782   1.083       .  S
C2776      C2777   1.412       .  A
C2777      C2778   1.397       .  A
C2777     Br2784   1.922       .  S
C2778      C2779   1.403       .  A
C2778      H2783   1.083       .  S
C2779      C2780   1.416       .  A
C2780     Br2781   1.923       .  S
C2785      C2786   1.406       .  A
C2785      C2790   1.400       .  A
C2785      H2792   1.083       .  S
C2786      C2787   1.419       .  A
C2787      C2788   1.404       .  A
C2787     Br2794   1.921   1_554  S
C2788      C2789   1.401       .  A
C2788      H2793   1.083   1_554  S
C2789      C2790   1.411       .  A
C2790     Br2791   1.921       .  S
C2795      C2796   1.403       .  A
C2795      C2800   1.396       .  A
C2795      H2802   1.084       .  S
C2796      C2797   1.410       .  A
C2797      C2798   1.402       .  A
C2797     Br2804   1.919       .  S
C2798      C2799   1.403       .  A
C2798      H2803   1.083       .  S
C2799      C2800   1.408       .  A
C2800     Br2801   1.921       .  S
C2805      C2806   1.404       .  A
C2805      C2810   1.394       .  A
C2805      H2812   1.084       .  S
C2806      C2807   1.403       .  A
C2807      C2808   1.394       .  A
C2807     Br2814   1.921       .  S
C2808      C2809   1.411       .  A
C2808      H2813   1.084       .  S
C2809      C2810   1.412       .  A
C2810     Br2811   1.922       .  S
C2815      C2816   1.405       .  A
C2815      C2820   1.399       .  A
C2815      H2822   1.083       .  S
C2816      C2817   1.422       .  A
C2817      C2818   1.403       .  A
C2817     Br2824   1.922       .  S
C2818      C2819   1.399       .  A
C2818      H2823   1.084       .  S
C2819      C2820   1.414       .  A
C2820     Br2821   1.923       .  S
C2825      C2826   1.408       .  A
C2825      C2830   1.393       .  A
C2825      H2832   1.083       .  S
C2826      C2827   1.411       .  A
C2827      C2828   1.402       .  A
C2827     Br2834   1.920       .  S
C2828      C2829   1.406       .  A
C2828      H2833   1.083       .  S
C2829      C2830   1.405       .  A
C2830     Br2831   1.922       .  S
C2835      C2836   1.411       .  A
C2835      C2840   1.397       .  A
C2835      H2842   1.083       .  S
C2836      C2837   1.412       .  A
C2837      C2838   1.396       .  A
C2837     Br2844   1.922       .  S
C2838      C2839   1.408       .  A
C2838      H2843   1.084       .  S
C2839      C2840   1.409       .  A
C2840     Br2841   1.922       .  S
C2845      C2846   1.409       .  A
C2845      C2850   1.400       .  A
C2845      H2852   1.083       .  S
C2846      C2847   1.414       .  A
C2847      C2848   1.400       .  A
C2847     Br2854   1.922       .  S
C2848      C2849   1.406       .  A
C2848      H2853   1.084       .  S
C2849      C2850   1.410       .  A
C2850     Br2851   1.921       .  S
C2855      C2856   1.401       .  A
C2855      C2860   1.396       .  A
C2855      H2862   1.084       .  S
C2856      C2857   1.411       .  A
C2857      C2858   1.402       .  A
C2857     Br2864   1.919       .  S
C2858      C2859   1.403       .  A
C2858      H2863   1.084       .  S
C2859      C2860   1.410       .  A
C2860     Br2861   1.921       .  S
C2865      C2866   1.406       .  A
C2865      C2870   1.398       .  A
C2865      H2872   1.084       .  S
C2866      C2867   1.403       .  A
C2867      C2868   1.395       .  A
C2867     Br2874   1.918       .  S
C2868      C2869   1.412       .  A
C2868      H2873   1.084       .  S
C2869      C2870   1.412       .  A
C2870     Br2871   1.921       .  S
C2875      C2876   1.402       .  A
C2875      C2880   1.402       .  A
C2875      H2882   1.083       .  S
C2876      C2877   1.417       .  A
C2877      C2878   1.391       .  A
C2877     Br2884   1.924       .  S
C2878      C2879   1.397       .  A
C2878      H2883   1.084       .  S
C2879      C2880   1.413       .  A
C2880     Br2881   1.920       .  S
C2885      C2886   1.402       .  A
C2885      C2890   1.391       .  A
C2885      H2892   1.084       .  S
C2886      C2887   1.421       .  A
C2887      C2888   1.401       .  A
C2887     Br2894   1.922       .  S
C2888      C2889   1.398       .  A
C2888      H2893   1.084       .  S
C2889      C2890   1.411       .  A
C2890     Br2891   1.923       .  S
C2895      C2896   1.411       .  A
C2895      C2900   1.403       .  A
C2895      H2902   1.084       .  S
C2896      C2897   1.411       .  A
C2897      C2898   1.402       .  A
C2897     Br2904   1.920       .  S
C2898      C2899   1.411       .  A
C2898      H2903   1.083       .  S
C2899      C2900   1.413       .  A
C2900     Br2901   1.921       .  S
C2905      C2906   1.397       .  A
C2905      C2910   1.401       .  A
C2905      H2912   1.083       .  S
C2906      C2907   1.411       .  A
C2907      C2908   1.396       .  A
C2907     Br2914   1.920       .  S
C2908      C2909   1.402       .  A
C2908      H2913   1.083       .  S
C2909      C2910   1.422       .  A
C2910     Br2911   1.923       .  S
C2915      C2916   1.407       .  A
C2915      C2920   1.396       .  A
C2915      H2922   1.083       .  S
C2916      C2917   1.412       .  A
C2917      C2918   1.402       .  A
C2917     Br2924   1.920       .  S
C2918      C2919   1.403       .  A
C2918      H2923   1.084       .  S
C2919      C2920   1.402       .  A
C2920     Br2921   1.919       .  S
C2925      C2926   1.412       .  A
C2925      C2930   1.399       .  A
C2925      H2932   1.083       .  S
C2926      C2927   1.413       .  A
C2927      C2928   1.396       .  A
C2927     Br2934   1.923       .  S
C2928      C2929   1.407       .  A
C2928      H2933   1.084       .  S
C2929      C2930   1.406       .  A
C2930     Br2931   1.920       .  S
C2935      C2936   1.410       .  A
C2935      C2940   1.398       .  A
C2935      H2942   1.083       .  S
C2936      C2937   1.416   1_455  A
C2937      C2938   1.405       .  A
C2937     Br2944   1.921       .  S
C2938      C2939   1.408       .  A
C2938      H2943   1.084       .  S
C2939      C2940   1.410   1_655  A
C2940     Br2941   1.922       .  S
C2945      C2946   1.407       .  A
C2945      C2950   1.397       .  A
C2945      H2952   1.084       .  S
C2946      C2947   1.409       .  A
C2947      C2948   1.399       .  A
C2947     Br2954   1.921       .  S
C2948      C2949   1.410       .  A
C2948      H2953   1.083       .  S
C2949      C2950   1.412       .  A
C2950     Br2951   1.922       .  S
C2955      C2956   1.411       .  A
C2955      C2960   1.403       .  A
C2955      H2962   1.083       .  S
C2956      C2957   1.411       .  A
C2957      C2958   1.393       .  A
C2957     Br2964   1.923       .  S
C2958      C2959   1.404       .  A
C2958      H2963   1.084       .  S
C2959      C2960   1.406       .  A
C2960     Br2961   1.917       .  S
C2965      C2966   1.398       .  A
C2965      C2970   1.399       .  A
C2965      H2972   1.084       .  S
C2966      C2967   1.411       .  A
C2967      C2968   1.393       .  A
C2967     Br2974   1.923       .  S
C2968      C2969   1.402       .  A
C2968      H2973   1.083       .  S
C2969      C2970   1.419       .  A
C2970     Br2971   1.922       .  S
C2975      C2976   1.402       .  A
C2975      C2980   1.404       .  A
C2975      H2982   1.083       .  S
C2976      C2977   1.414       .  A
C2977      C2978   1.397       .  A
C2977     Br2984   1.924       .  S
C2978      C2979   1.405       .  A
C2978      H2983   1.083       .  S
C2979      C2980   1.421       .  A
C2980     Br2981   1.922       .  S
C2985      C2986   1.402       .  A
C2985      C2990   1.396       .  A
C2985      H2992   1.084       .  S
C2986      C2987   1.411       .  A
C2987      C2988   1.400       .  A
C2987     Br2994   1.919       .  S
C2988      C2989   1.401       .  A
C2988      H2993   1.084       .  S
C2989      C2990   1.410       .  A
C2990     Br2991   1.922       .  S
C2995      C2996   1.413       .  A
C2995      C3000   1.395       .  A
C2995      H3002   1.083       .  S
C2996      C2997   1.409       .  A
C2997      C2998   1.396       .  A
C2997     Br3004   1.921       .  S
C2998      C2999   1.410       .  A
C2998      H3003   1.084       .  S
C2999      C3000   1.405       .  A
C3000     Br3001   1.921       .  S
C3005      C3006   1.409       .  A
C3005      C3010   1.394       .  A
C3005      H3012   1.084       .  S
C3006      C3007   1.408       .  A
C3007      C3008   1.402       .  A
C3007     Br3014   1.918       .  S
C3008      C3009   1.409       .  A
C3008      H3013   1.084       .  S
C3009      C3010   1.406       .  A
C3010     Br3011   1.922       .  S
C3015      C3016   1.407       .  A
C3015      C3020   1.401       .  A
C3015      H3022   1.084       .  S
C3016      C3017   1.406       .  A
C3017      C3018   1.396       .  A
C3017     Br3024   1.921       .  S
C3018      C3019   1.411       .  A
C3018      H3023   1.083       .  S
C3019      C3020   1.413       .  A
C3020     Br3021   1.921       .  S
C3025      C3026   1.404       .  A
C3025      C3030   1.402   1_455  A
C3025      H3032   1.083   1_455  S
C3026      C3027   1.418       .  A
C3027      C3028   1.398       .  A
C3027     Br3034   1.924       .  S
C3028      C3029   1.403       .  A
C3028      H3033   1.083       .  S
C3029      C3030   1.420   1_455  A
C3030     Br3031   1.923       .  S
C3035      C3036   1.401       .  A
C3035      C3040   1.398       .  A
C3035      H3042   1.084   1_655  S
C3036      C3037   1.413       .  A
C3037      C3038   1.404       .  A
C3037     Br3044   1.919       .  S
C3038      C3039   1.402       .  A
C3038      H3043   1.084       .  S
C3039      C3040   1.413       .  A
C3040     Br3041   1.922   1_655  S
C3045      C3046   1.410       .  A
C3045      C3050   1.393       .  A
C3045      H3052   1.083       .  S
C3046      C3047   1.410       .  A
C3047      C3048   1.395       .  A
C3047     Br3054   1.923       .  S
C3048      C3049   1.408       .  A
C3048      H3053   1.084       .  S
C3049      C3050   1.406       .  A
C3050     Br3051   1.921       .  S
C3055      C3056   1.403       .  A
C3055      C3060   1.399       .  A
C3055      H3062   1.084       .  S
C3056      C3057   1.420       .  A
C3057      C3058   1.403       .  A
C3057     Br3064   1.923       .  S
C3058      C3059   1.404       .  A
C3058      H3063   1.084       .  S
C3059      C3060   1.418       .  A
C3060     Br3061   1.923       .  S
C3065      C3066   1.407       .  A
C3065      C3070   1.394       .  A
C3065      H3072   1.083       .  S
C3066      C3067   1.407       .  A
C3067      C3068   1.400       .  A
C3067     Br3074   1.918       .  S
C3068      C3069   1.407       .  A
C3068      H3073   1.084       .  S
C3069      C3070   1.406       .  A
C3070     Br3071   1.922       .  S
C3075      C3076   1.408       .  A
C3075      C3080   1.405       .  A
C3075      H3082   1.083       .  S
C3076      C3077   1.408       .  A
C3077      C3078   1.396       .  A
C3077     Br3084   1.919       .  S
C3078      C3079   1.407       .  A
C3078      H3083   1.083       .  S
C3079      C3080   1.410       .  A
C3080     Br3081   1.918       .  S
C3085      C3086   1.406       .  A
C3085      C3090   1.396       .  A
C3085      H3092   1.084       .  S
C3086      C3087   1.406       .  A
C3087      C3088   1.396       .  A
C3087     Br3094   1.921       .  S
C3088      C3089   1.411       .  A
C3088      H3093   1.083       .  S
C3089      C3090   1.413       .  A
C3090     Br3091   1.923       .  S
C3095      C3096   1.404   1_455  A
C3095      C3100   1.398       .  A
C3095      H3102   1.083       .  S
C3096      C3097   1.418       .  A
C3097      C3098   1.400       .  A
C3097     Br3104   1.923       .  S
C3098      C3099   1.403   1_655  A
C3098      H3103   1.083       .  S
C3099      C3100   1.417       .  A
C3100     Br3101   1.924   1_554  S
C3105      C3106   1.413       .  A
C3105      C3110   1.399       .  A
C3105      H3112   1.083       .  S
C3106      C3107   1.411       .  A
C3107      C3108   1.395       .  A
C3107     Br3114   1.922       .  S
C3108      C3109   1.407       .  A
C3108      H3113   1.084       .  S
C3109      C3110   1.405       .  A
C3110     Br3111   1.920       .  S
C3115      C3116   1.401   1_455  A
C3115      C3120   1.404       .  A
C3115      H3122   1.084       .  S
C3116      C3117   1.416       .  A
C3117      C3118   1.400       .  A
C3117     Br3124   1.923       .  S
C3118      C3119   1.404       .  A
C3118      H3123   1.083       .  S
C3119      C3120   1.423   1_655  A
C3120     Br3121   1.923       .  S
C3125      C3126   1.403       .  A
C3125      C3130   1.400       .  A
C3125      H3132   1.084       .  S
C3126      C3127   1.402       .  A
C3127      C3128   1.396       .  A
C3127     Br3134   1.920       .  S
C3128      C3129   1.408       .  A
C3128      H3133   1.083       .  S
C3129      C3130   1.411       .  A
C3130     Br3131   1.920       .  S
C3135      C3136   1.410       .  A
C3135      C3140   1.395       .  A
C3135      H3142   1.083       .  S
C3136      C3137   1.409       .  A
C3137      C3138   1.395       .  A
C3137     Br3144   1.922       .  S
C3138      C3139   1.408       .  A
C3138      H3143   1.083       .  S
C3139      C3140   1.409       .  A
C3140     Br3141   1.922       .  S
C3145      C3146   1.403       .  A
C3145      C3150   1.400   1_554  A
C3145      H3152   1.084   1_554  S
C3146      C3147   1.419       .  A
C3147      C3148   1.402       .  A
C3147     Br3154   1.923       .  S
C3148      C3149   1.403       .  A
C3148      H3153   1.084       .  S
C3149      C3150   1.420   1_554  A
C3150     Br3151   1.924       .  S
C3155      C3156   1.398       .  A
C3155      C3160   1.394       .  A
C3155      H3162   1.082       .  S
C3156      C3157   1.416       .  A
C3157      C3158   1.403       .  A
C3157     Br3164   1.921       .  S
C3158      C3159   1.402       .  A
C3158      H3163   1.083       .  S
C3159      C3160   1.416       .  A
C3160     Br3161   1.923       .  S
C3165      C3166   1.399       .  A
C3165      C3170   1.397       .  A
C3165      H3172   1.084       .  S
C3166      C3167   1.413       .  A
C3167      C3168   1.390       .  A
C3167     Br3174   1.924       .  S
C3168      C3169   1.401       .  A
C3168      H3173   1.084       .  S
C3169      C3170   1.420       .  A
C3170     Br3171   1.923   1_556  S
C3175      C3176   1.401       .  A
C3175      C3180   1.402       .  A
C3175      H3182   1.084       .  S
C3176      C3177   1.414   1_554  A
C3177      C3178   1.395   1_556  A
C3177     Br3184   1.924       .  S
C3178      C3179   1.404       .  A
C3178      H3183   1.083   1_554  S
C3179      C3180   1.420       .  A
C3180     Br3181   1.922       .  S
C3185      C3186   1.399       .  A
C3185      C3190   1.399       .  A
C3185      H3192   1.084       .  S
C3186      C3187   1.411       .  A
C3187      C3188   1.392       .  A
C3187     Br3194   1.923       .  S
C3188      C3189   1.401       .  A
C3188      H3193   1.084       .  S
C3189      C3190   1.417       .  A
C3190     Br3191   1.922       .  S
C3195      C3196   1.405       .  A
C3195      C3200   1.394       .  A
C3195      H3202   1.084       .  S
C3196      C3197   1.406       .  A
C3197      C3198   1.396       .  A
C3197     Br3204   1.921       .  S
C3198      C3199   1.411       .  A
C3198      H3203   1.084       .  S
C3199      C3200   1.413       .  A
C3200     Br3201   1.923       .  S
C3205      C3206   1.409       .  A
C3205      C3210   1.402       .  A
C3205      H3212   1.084       .  S
C3206      C3207   1.413   1_455  A
C3207      C3208   1.398       .  A
C3207     Br3214   1.922       .  S
C3208      C3209   1.407       .  A
C3208      H3213   1.084       .  S
C3209      C3210   1.413   1_655  A
C3210     Br3211   1.921       .  S
C3215      C3216   1.398       .  A
C3215      C3220   1.392       .  A
C3215      H3222   1.084       .  S
C3216      C3217   1.412       .  A
C3217      C3218   1.402       .  A
C3217     Br3224   1.919       .  S
C3218      C3219   1.403       .  A
C3218      H3223   1.083       .  S
C3219      C3220   1.415       .  A
C3220     Br3221   1.923       .  S
C3225      C3226   1.409       .  A
C3225      C3230   1.396       .  A
C3225      H3232   1.083       .  S
C3226      C3227   1.412       .  A
C3227      C3228   1.396       .  A
C3227     Br3234   1.922       .  S
C3228      C3229   1.407       .  A
C3228      H3233   1.084       .  S
C3229      C3230   1.409       .  A
C3230     Br3231   1.921       .  S
C3235      C3236   1.408       .  A
C3235      C3240   1.401       .  A
C3235      H3242   1.084       .  S
C3236      C3237   1.413       .  A
C3237      C3238   1.402       .  A
C3237     Br3244   1.921       .  S
C3238      C3239   1.409       .  A
C3238      H3243   1.084       .  S
C3239      C3240   1.413       .  A
C3240     Br3241   1.921       .  S
C3245      C3246   1.405       .  A
C3245      C3250   1.402       .  A
C3245      H3252   1.084       .  S
C3246      C3247   1.406       .  A
C3247      C3248   1.394       .  A
C3247     Br3254   1.920       .  S
C3248      C3249   1.404       .  A
C3248      H3253   1.084       .  S
C3249      C3250   1.408       .  A
C3250     Br3251   1.918       .  S
C3255      C3256   1.406       .  A
C3255      C3260   1.395       .  A
C3255      H3262   1.084       .  S
C3256      C3257   1.405       .  A
C3257      C3258   1.401       .  A
C3257     Br3264   1.918       .  S
C3258      C3259   1.409       .  A
C3258      H3263   1.083       .  S
C3259      C3260   1.409       .  A
C3260     Br3261   1.922       .  S
