geometry optimzed in LAMMPS
_audit_creation_date              2020-12-01 
_audit_creation_method            'lammps2cif' 
_symmetry_space_group_name_H-M    'P1' 
_symmetry_Int_Tables_number       1 
_symmetry_cell_setting            triclinic 
loop_ 
_symmetry_equiv_pos_as_xyz 
  x,y,z 
_cell_length_a                    37.13347138 
_cell_length_b                    37.09159832636516 
_cell_length_c                    25.594058407637156 
_cell_angle_alpha                 89.71674774547071 
_cell_angle_beta                  90.48597964440751 
_cell_angle_gamma                 121.12170366133479 
loop_ 
_atom_site_label 
_atom_site_type_symbol 
_atom_site_fract_x 
_atom_site_fract_y 
_atom_site_fract_z 
_atom_site_charge 
In1        In  0.84465262  0.40284758  0.95366193     1.36900
C2          C  0.78334489  0.41660197  0.96920336     0.77700
O3          O  0.81725890  0.36956740  0.87829221    -0.60800
O4          O  0.81404269  0.33222888  0.94325136    -0.51700
C5          C  0.91967657  0.45030014  0.91297643     0.70300
O6          O  0.89049288  0.45794163  0.90644996    -0.46500
C7          C  0.86788746  0.42405992  0.05230742     0.75000
O8          O  0.81059900  0.43639071  0.93433311    -0.58400
O9          O  0.85724597  0.38778099  0.03499515    -0.48500
O10         O  0.78593675  0.38801506  0.99245316    -0.54800
C11         C  0.80444275  0.33311372  0.89587764     0.85200
O12         O  0.90918530  0.41652645  0.93726961    -0.56700
O13         O  0.86968646  0.44931171  0.01792672    -0.60000
In14       In  0.56450713  0.40934360  0.04184091     1.36900
C15         C  0.64027988  0.42301203  0.02804585     0.77700
O16         O  0.55801072  0.37619297  0.11805094    -0.60800
O17         O  0.52211178  0.33878082  0.05372507    -0.51700
C18         C  0.53974864  0.45840398  0.08129315     0.70300
O19         O  0.57726676  0.46683924  0.08480362    -0.46500
C20         C  0.56100284  0.42736274  0.94148639     0.75000
O21         O  0.63303110  0.44190204  0.06364023    -0.58400
O22         O  0.53561485  0.39128505  0.96056250    -0.48500
O23         O  0.60868298  0.39606270  0.00259252    -0.54800
C24         C  0.53282316  0.33967126  0.10100630     0.85200
O25         O  0.51430181  0.42312417  0.06081238    -0.56700
O26         O  0.58503219  0.45398424  0.97485273    -0.60000
In27       In  0.61467847  0.45747693  0.61924556     1.36900
C28         C  0.60734614  0.38373989  0.62555286     0.77700
O29         O  0.64763558  0.46921811  0.54298376    -0.60800
O30         O  0.68542985  0.49920009  0.60992058    -0.51700
C31         C  0.56741661  0.48337188  0.57652212     0.70300
O32         O  0.56108913  0.44693338  0.56867040    -0.46500
C33         C  0.59267407  0.45475634  0.71867179     0.75000
O34         O  0.58004715  0.38829561  0.60153271    -0.58400
O35         O  0.62754040  0.48444825  0.70145885    -0.48500
O36         O  0.63787376  0.41668243  0.64483133    -0.54800
C37         C  0.68430891  0.49111398  0.56166298     0.85200
O38         O  0.59980045  0.50725457  0.60364261    -0.56700
O39         O  0.56920397  0.42906974  0.68420302    -0.60000
In40       In  0.61387613  0.16834817  0.69969837     1.36900
C41         C  0.60997623  0.23589851  0.68240803     0.77700
O42         O  0.64423267  0.19360272  0.77713789    -0.60800
O43         O  0.68303081  0.19496253  0.71532092    -0.51700
C44         C  0.56505468  0.09373878  0.74109268     0.70300
O45         O  0.55739337  0.12309694  0.74539627    -0.46500
C46         C  0.59045903  0.14524809  0.60096843     0.75000
O47         O  0.58425068  0.20695049  0.71259366    -0.58400
O48         O  0.62623578  0.15336646  0.61781105    -0.48500
O49         O  0.63880033  0.23095226  0.66489189    -0.54800
C50         C  0.68092168  0.20521479  0.76192332     0.85200
O51         O  0.59935299  0.10399881  0.71874696    -0.56700
O52         O  0.56725170  0.14646303  0.63560225    -0.60000
In53       In  0.55214000  0.16732207  0.28232924     1.36900
C54         C  0.62326855  0.23736148  0.29759377     0.77700
O55         O  0.54639353  0.19372418  0.20651650    -0.60800
O56         O  0.50864939  0.19252883  0.26954503    -0.51700
C57         C  0.52824086  0.09550318  0.23625626     0.70300
O58         O  0.56501160  0.12712643  0.23156745    -0.46500
C59         C  0.55370640  0.14297814  0.38000335     0.75000
O60         O  0.62146206  0.20771465  0.27109968    -0.58400
O61         O  0.52477210  0.14898499  0.36361795    -0.48500
O62         O  0.58874496  0.23105420  0.31474061    -0.54800
C63         C  0.52119703  0.20423925  0.22312998     0.85200
O64         O  0.50287730  0.10196702  0.26140100    -0.56700
O65         O  0.57937671  0.14696447  0.34534509    -0.60000
In66       In  0.84480654  0.46032773  0.37119913     1.36900
C67         C  0.77437171  0.38888543  0.35824981     0.77700
O68         O  0.82307350  0.46928446  0.44860037    -0.60800
O69         O  0.81858551  0.50264224  0.38330491    -0.51700
C70         C  0.92129883  0.48831547  0.40725562     0.70300
O71         O  0.89119978  0.45129451  0.41662715    -0.46500
C72         C  0.86397908  0.45538478  0.27297926     0.75000
O73         O  0.80337984  0.39159173  0.38764846    -0.58400
O74         O  0.85998880  0.48563610  0.28872274    -0.48500
O75         O  0.78117598  0.42314264  0.33872433    -0.54800
C76         C  0.80994244  0.49235494  0.43093797     0.85200
O77         O  0.91092879  0.51153826  0.38321149    -0.56700
O78         O  0.86010651  0.42983545  0.30826595    -0.60000
In79       In  0.17169770  0.62203698  0.93853207     1.36900
C80         C  0.24025669  0.61899602  0.94506677     0.77700
O81         O  0.19210030  0.65219270  0.86047769    -0.60800
O82         O  0.19718293  0.69111155  0.92459332    -0.51700
C83         C  0.09427192  0.57418941  0.90473452     0.70300
O84         O  0.12320546  0.56716467  0.89335144    -0.46500
C85         C  0.15748851  0.60119219  0.03851489     0.75000
O86         O  0.20764218  0.58996736  0.92245704    -0.58400
O87         O  0.16410806  0.63633847  0.02151664    -0.48500
O88         O  0.23775058  0.64962961  0.96141241    -0.54800
C89         C  0.20490127  0.68899000  0.87688824     0.85200
O90         O  0.10593671  0.60752562  0.93049081    -0.56700
O91         O  0.15599769  0.57662186  0.00358267    -0.60000
In92       In  0.46025063  0.62165071  0.02334027     1.36900
C93         C  0.38871073  0.61770119  0.00610162     0.77700
O94         O  0.46656425  0.65445609  0.09844874    -0.60800
O95         O  0.50353650  0.69196698  0.03445877    -0.51700
C96         C  0.48968082  0.57868760  0.06991996     0.70300
O97         O  0.45233409  0.57028105  0.07664746    -0.46500
C98         C  0.45631641  0.59475588  0.92603553     0.75000
O99         O  0.39041790  0.59036645  0.03431115    -0.58400
O100        O  0.48547817  0.63103220  0.94088545    -0.48500
O101        O  0.42371855  0.64718892  0.98996641    -0.54800
C102        C  0.49188741  0.69096393  0.08122010     0.85200
O103        O  0.51215900  0.61053020  0.04154113    -0.56700
O104        O  0.43223449  0.57213048  0.96215811    -0.60000
In105      In  0.46126409  0.85152932  0.27101520     1.36900
C106        C  0.39078702  0.78106132  0.28938233     0.77700
O107        O  0.46803516  0.82693315  0.19469519    -0.60800
O108        O  0.50532310  0.82730239  0.25867378    -0.51700
C109        C  0.48617713  0.92545059  0.22951301     0.70300
O110        O  0.44901499  0.89451434  0.22348311    -0.46500
C111        C  0.46006632  0.87662100  0.36758721     0.75000
O112        O  0.39251104  0.80802125  0.25717942    -0.58400
O113        O  0.48910095  0.87074045  0.35198070    -0.48500
O114        O  0.42556312  0.78966210  0.30925459    -0.54800
C115        C  0.49347134  0.81657079  0.21172288     0.85200
O116        O  0.51111952  0.91702000  0.25290807    -0.56700
O117        O  0.43375332  0.87174818  0.33270350    -0.60000
In118      In  0.16809131  0.55812937  0.35958266     1.36900
C119        C  0.23946535  0.62970744  0.35012781     0.77700
O120        O  0.19169993  0.55263640  0.43755410    -0.60800
O121        O  0.18703728  0.51079354  0.37735481    -0.51700
C122        C  0.09366910  0.53514560  0.39835497     0.70300
O123        O  0.12491630  0.57217221  0.40296834    -0.46500
C124        C  0.15290506  0.55929831  0.25830489     0.75000
O125        O  0.20795169  0.62778415  0.37165655    -0.58400
O126        O  0.15945107  0.53157322  0.27753592    -0.48500
O127        O  0.23452278  0.59499700  0.33572567    -0.54800
C128        C  0.19901470  0.52447166  0.42340571     0.85200
O129        O  0.10134313  0.50949563  0.37603244    -0.56700
O130        O  0.15095623  0.58304139  0.29167170    -0.60000
In131      In  0.39591427  0.55606701  0.60579173     1.36900
C132        C  0.40213543  0.62898170  0.61726777     0.77700
O133        O  0.36293492  0.54990580  0.53034490    -0.60800
O134        O  0.32613873  0.51087821  0.59333772    -0.51700
C135        C  0.44653101  0.53346209  0.56669154     0.70300
O136        O  0.45340743  0.57044787  0.56273336    -0.46500
C137        C  0.41902587  0.55754019  0.70512391     0.75000
O138        O  0.42260959  0.62328117  0.58233069    -0.58400
O139        O  0.38293807  0.52945973  0.68824657    -0.48500
O140        O  0.37779211  0.59713784  0.64422228    -0.54800
C141        C  0.32681330  0.52345743  0.54700355     0.85200
O142        O  0.41135077  0.50695761  0.58625600    -0.56700
O143        O  0.44288775  0.58231940  0.67030801    -0.60000
In144      In  0.40014790  0.84729720  0.68383205     1.36900
C145        C  0.40527740  0.78063018  0.66673243     0.77700
O146        O  0.36675123  0.81951054  0.75835729    -0.60800
O147        O  0.33018335  0.82060029  0.69462701    -0.51700
C148        C  0.44779766  0.91937858  0.73170578     0.70300
O149        O  0.45463540  0.88939366  0.73478630    -0.46500
C150        C  0.42612721  0.87517376  0.58748062     0.75000
O151        O  0.42768365  0.80742888  0.70125586    -0.58400
O152        O  0.38973794  0.86542265  0.60301960    -0.48500
O153        O  0.37972851  0.78759264  0.64265129    -0.54800
C154        C  0.33080321  0.80960804  0.74146570     0.85200
O155        O  0.41489196  0.91115686  0.70662637    -0.56700
O156        O  0.44918009  0.87338547  0.62255887    -0.60000
C157        C  0.40682445  0.66982749  0.62806312    -0.00100
C158        C  0.41059845  0.68225248  0.68046455    -0.11900
C159        C  0.41179040  0.71922509  0.69394195     0.02200
C160        C  0.40842682  0.74385200  0.65443800    -0.00200
C161        C  0.40539275  0.73179724  0.60185817    -0.11900
C162        C  0.40493669  0.69511762  0.58832130     0.02100
H163        H  0.41196881  0.66260829  0.71102624     0.15000
H164        H  0.40277188  0.75078033  0.57141667     0.15000
C165        C  0.39987531  0.68278000  0.53404270     0.36700
C166        C  0.41362802  0.72961116  0.74859083     0.36600
N167        N  0.39568702  0.67278333  0.49059593    -0.43700
N168        N  0.41491943  0.73785800  0.79238020    -0.43700
C169        C  0.22428123  0.51256412  0.45623972    -0.00100
C170        C  0.25533963  0.50798520  0.43173937    -0.11900
C171        C  0.28775491  0.50855473  0.46087388     0.02200
C172        C  0.28850052  0.51200945  0.51589927    -0.00200
C173        C  0.25504249  0.51225423  0.54070627    -0.11900
C174        C  0.22347758  0.51332568  0.51140406     0.02100
H175        H  0.25638278  0.50754559  0.38939573     0.15000
H176        H  0.25535821  0.51508213  0.58290720     0.15000
C177        C  0.19169135  0.51703921  0.53876368     0.36700
C178        C  0.32085862  0.50749980  0.43306359     0.36600
N179        N  0.16627763  0.52012006  0.56068534    -0.43700
N180        N  0.34730032  0.50675979  0.41039307    -0.43700
C181        C  0.43968752  0.88453408  0.53184782    -0.00100
C182        C  0.41247028  0.88613238  0.49480805    -0.11900
C183        C  0.41993851  0.88682399  0.44103534     0.02200
C184        C  0.45522063  0.88527317  0.42313492    -0.00200
C185        C  0.48428230  0.88745335  0.46018356    -0.11900
C186        C  0.47710757  0.88728574  0.51386364     0.02100
H187        H  0.38423169  0.88511846  0.50776942     0.15000
H188        H  0.51196223  0.88732175  0.44728684     0.15000
C189        C  0.50803474  0.88779609  0.54892795     0.36700
C190        C  0.38978668  0.88759747  0.40571838     0.36600
N191        N  0.53312061  0.88821769  0.57648621    -0.43700
N192        N  0.36544430  0.88835826  0.37790310    -0.43700
C193        C  0.35139343  0.74273091  0.30473885    -0.00100
C194        C  0.35393494  0.70910764  0.32600110    -0.11900
C195        C  0.31795726  0.67259203  0.34316401     0.02200
C196        C  0.27855811  0.66943788  0.33937254    -0.00200
C197        C  0.27600234  0.70338467  0.31978277    -0.11900
C198        C  0.31200613  0.73993470  0.30236537     0.02100
H199        H  0.38413595  0.71124663  0.32909782     0.15000
H200        H  0.24563456  0.70090510  0.31680116     0.15000
C201        C  0.30767229  0.77436655  0.28395729     0.36700
C202        C  0.32238674  0.63927146  0.36577556     0.36600
N203        N  0.30415958  0.80200422  0.26945826    -0.43700
N204        N  0.32581265  0.61260443  0.38413544    -0.43700
C205        C  0.44886972  0.58069206  0.87027570    -0.00100
C206        C  0.47941919  0.60497807  0.83290109    -0.11900
C207        C  0.47148690  0.59649145  0.77925508     0.02200
C208        C  0.43169396  0.56327353  0.76153353    -0.00200
C209        C  0.40207886  0.53746848  0.79905035    -0.11900
C210        C  0.41025775  0.54554596  0.85273538     0.02100
H211        H  0.50939603  0.63149952  0.84551870     0.15000
H212        H  0.37168253  0.51160599  0.78643867     0.15000
C213        C  0.37735839  0.51805805  0.88838547     0.36700
C214        C  0.50475746  0.62329682  0.74364390     0.36600
N215        N  0.35091581  0.49587621  0.91676420    -0.43700
N216        N  0.53154732  0.64480034  0.71526677    -0.43700
C217        C  0.50392629  0.72896366  0.11337054    -0.00100
C218        C  0.50525750  0.72565169  0.16800188    -0.11900
C219        C  0.50652592  0.75637823  0.20107111     0.02200
C220        C  0.50495678  0.79070874  0.17956791    -0.00200
C221        C  0.50699436  0.79575445  0.12496965    -0.11900
C222        C  0.50728098  0.76576117  0.09188456     0.02100
H223        H  0.50335882  0.69788411  0.18504957     0.15000
H224        H  0.50634271  0.82225794  0.10794767     0.15000
C225        C  0.50768810  0.77209210  0.03614678     0.36700
C226        C  0.50592568  0.74987339  0.25678853     0.36600
N227        N  0.50828026  0.77757102  0.99152640    -0.43700
N228        N  0.50568030  0.74452344  0.30140186    -0.43700
C229        C  0.15335203  0.58943736  0.09476881    -0.00100
C230        C  0.15183867  0.55189807  0.10913339    -0.11900
C231        C  0.15097746  0.54060629  0.16177091     0.02200
C232        C  0.15040376  0.56658990  0.20149318    -0.00200
C233        C  0.15091649  0.60352067  0.18689197    -0.11900
C234        C  0.15312096  0.61544383  0.13457919     0.02100
H235        H  0.15254981  0.53172146  0.07916516     0.15000
H236        H  0.15121332  0.62436604  0.21667376     0.15000
C237        C  0.15680507  0.65541266  0.12349707     0.36700
C238        C  0.15180170  0.50290392  0.17343402     0.36600
N239        N  0.16024921  0.68768091  0.11470118    -0.43700
N240        N  0.15272193  0.47276381  0.18235520    -0.43700
C241        C  0.23067063  0.72631115  0.84327637    -0.00100
C242        C  0.22456935  0.72188721  0.78885649    -0.11900
C243        C  0.25509987  0.75099831  0.75439999     0.02200
C244        C  0.29293810  0.78509390  0.77441834    -0.00200
C245        C  0.29726851  0.79154997  0.82874951    -0.11900
C246        C  0.26642719  0.76288816  0.86317381     0.02100
H247        H  0.19712277  0.69403827  0.77312851     0.15000
H248        H  0.32605571  0.81785743  0.84456778     0.15000
C249        C  0.27458299  0.76961855  0.91862958     0.36700
C250        C  0.24861489  0.74246674  0.69907926     0.36600
N251        N  0.28124928  0.77492043  0.96305100    -0.43700
N252        N  0.24320210  0.73530684  0.65480033    -0.43700
C253        C  0.34948187  0.61608236  0.99087078    -0.00100
C254        C  0.35327620  0.65300324  0.97006467    -0.10700
C255        C  0.31821469  0.65380849  0.95227258     0.02200
C256        C  0.27815103  0.61711244  0.95503543    -0.00200
C257        C  0.27404957  0.57975886  0.97452786    -0.11900
C258        C  0.30934846  0.57895388  0.99271788     0.02100
H259        H  0.38388742  0.68164577  0.96765125     0.15000
H260        H  0.24308386  0.55161989  0.97730219     0.15000
C261        C  0.30336630  0.53972153  0.01249523     0.36700
C262        C  0.32437740  0.69259495  0.93042468     0.36600
N263        N  0.29841801  0.50820556  0.02835247    -0.43700
N264        N  0.32945988  0.72364502  0.91273450    -0.43700
C265        C  0.96585270  0.50209424  0.41857292    -0.00100
C266        C  0.97666213  0.47121268  0.42570720    -0.11900
C267        C  0.01867779  0.48167082  0.42327380     0.02200
C268        C  0.05070215  0.52371537  0.41369376    -0.00200
C269        C  0.04036524  0.55514391  0.41244149    -0.11900
C270        C  0.99843087  0.54476643  0.41471760     0.02100
H271        H  0.95214286  0.43842796  0.42996791     0.15000
H272        H  0.06484089  0.58773116  0.40633637     0.15000
C273        C  0.98987150  0.57851187  0.41111947     0.36700
C274        C  0.02805050  0.44865588  0.42976023     0.36600
N275        N  0.98307493  0.60559682  0.40825271    -0.43700
N276        N  0.03590027  0.42245370  0.43516410    -0.43700
C277        C  0.51732992  0.05310144  0.21908039    -0.00100
C278        C  0.54968383  0.04413449  0.21757861    -0.11900
C279        C  0.54054895  0.00257234  0.21641039     0.02200
C280        C  0.49819542  0.96906309  0.21583726    -0.00200
C281        C  0.46609869  0.97835047  0.21081496    -0.11900
C282        C  0.47528804  0.01996973  0.21274004     0.02100
H283        H  0.58221058  0.06944539  0.22149150     0.15000
H284        H  0.43345862  0.95300789  0.20927174     0.15000
C285        C  0.44094001  0.02764243  0.21011868     0.36700
C286        C  0.57530596  0.99550231  0.21857459     0.36600
N287        N  0.41347583  0.03387784  0.20792694    -0.43700
N288        N  0.60333019  0.99010926  0.22042139    -0.43700
C289        C  0.66264845  0.27623111  0.30977238    -0.00100
C290        C  0.69706746  0.27381411  0.32774869    -0.11900
C291        C  0.73358596  0.30988473  0.34551607     0.02200
C292        C  0.73576977  0.34905530  0.34488067    -0.00200
C293        C  0.70137124  0.35125470  0.32589136    -0.11900
C294        C  0.66501907  0.31532016  0.30838563     0.02100
H295        H  0.69503302  0.24356970  0.32903090     0.15000
H296        H  0.70294843  0.38128109  0.32428761     0.15000
C297        C  0.63121636  0.31965688  0.28737375     0.36700
C298        C  0.76849840  0.30587978  0.36260218     0.36600
N299        N  0.60433549  0.32330145  0.27026093    -0.43700
N300        N  0.79648567  0.30263165  0.37623217    -0.43700
C301        C  0.47762730  0.96217618  0.75133341    -0.00100
C302        C  0.46311820  0.99009008  0.75774942    -0.11900
C303        C  0.49129933  0.03357026  0.76050881     0.02200
C304        C  0.53497395  0.04960058  0.75618878    -0.00200
C305        C  0.54943006  0.02132157  0.75682829    -0.11900
C306        C  0.52128601  0.97788360  0.75458000     0.02100
H307        H  0.42957430  0.97815397  0.75686352     0.15000
H308        H  0.58293154  0.03322181  0.75513023     0.15000
C309        C  0.53851478  0.95091244  0.75023185     0.36700
C310        C  0.47402724  0.06058642  0.76311684     0.36600
N311        N  0.55249950  0.92946263  0.74669021    -0.43700
N312        N  0.45976054  0.08186168  0.76531654    -0.43700
C313        C  0.57707586  0.13751887  0.54485787    -0.00100
C314        C  0.60237404  0.13329306  0.50789875    -0.11900
C315        C  0.59371166  0.13177620  0.45407361     0.02200
C316        C  0.55934822  0.13532929  0.43602654    -0.00200
C317        C  0.53244475  0.13645652  0.47312597    -0.11900
C318        C  0.54076593  0.13750852  0.52675771     0.02100
H319        H  0.62975020  0.13233727  0.52094380     0.15000
H320        H  0.50566327  0.13854354  0.46020828     0.15000
C321        C  0.51237929  0.14097593  0.56173330     0.36700
C322        C  0.62139649  0.12758950  0.41860196     0.36600
N323        N  0.48966617  0.14387935  0.58968004    -0.43700
N324        N  0.64357594  0.12408840  0.39033809    -0.43700
C325        C  0.47878852  0.52276751  0.55474235    -0.00100
C326        C  0.46605760  0.48054733  0.54536986    -0.11900
C327        C  0.49512835  0.46721632  0.54717022     0.02200
C328        C  0.53779141  0.49655571  0.55932735    -0.00200
C329        C  0.55102843  0.53934124  0.56328434    -0.11900
C330        C  0.52213639  0.55269670  0.56121511     0.02100
H331        H  0.43294442  0.45746331  0.53961194     0.15000
H332        H  0.58379866  0.56226155  0.57163826     0.15000
C333        C  0.53770632  0.59660794  0.57167521     0.36700
C334        C  0.47954227  0.42287738  0.54039243     0.36600
N335        N  0.55039386  0.63177450  0.58041978    -0.43700
N336        N  0.46708551  0.38736024  0.53492503    -0.43700
C337        C  0.60459834  0.34334252  0.63232785    -0.00100
C338        C  0.56959966  0.31026929  0.65727565    -0.11900
C339        C  0.57016647  0.27453341  0.67393359     0.02200
C340        C  0.60674609  0.27240390  0.66638278    -0.00200
C341        C  0.64078024  0.30496528  0.63897605    -0.11900
C342        C  0.63964847  0.33989220  0.62133546     0.02100
H343        H  0.54244375  0.31295707  0.66517089     0.15000
H344        H  0.66844478  0.30318650  0.63093931     0.15000
C345        C  0.67417025  0.37134992  0.59046798     0.36700
C346        C  0.53257827  0.24044879  0.69723023     0.36600
N347        N  0.70124946  0.39637096  0.56495621    -0.43700
N348        N  0.50224124  0.21299682  0.71536015    -0.43700
C349        C  0.78326286  0.50279630  0.46306523    -0.00100
C350        C  0.78900643  0.50610698  0.51759668    -0.11900
C351        C  0.75907973  0.50632934  0.55071194     0.02200
C352        C  0.72204108  0.50263142  0.52933425    -0.00200
C353        C  0.71791836  0.50245718  0.47465015    -0.11900
C354        C  0.74786374  0.50242456  0.44158511     0.02100
H355        H  0.81596792  0.50632245  0.53463489     0.15000
H356        H  0.68972186  0.49961318  0.45756314     0.15000
C357        C  0.73878022  0.49716331  0.38623181     0.36700
C358        C  0.76558330  0.50657306  0.60642579     0.36600
N359        N  0.73105783  0.49255971  0.34198834    -0.43700
N360        N  0.77093900  0.50669937  0.65105408    -0.43700
C361        C  0.52775859  0.48954374  0.09450423    -0.00100
C362        C  0.55865475  0.53244668  0.09055076    -0.11900
C363        C  0.54747068  0.56307529  0.08743189     0.02200
C364        C  0.50457056  0.55081557  0.08896857    -0.00200
C365        C  0.47441110  0.50865688  0.10033309    -0.11900
C366        C  0.48556497  0.47794057  0.10255071     0.02100
H367        H  0.59137131  0.54190490  0.08561298     0.15000
H368        H  0.44147112  0.49892356  0.10300717     0.15000
C369        C  0.45278026  0.43458950  0.11028745     0.36700
C370        C  0.58053009  0.60638722  0.07990062     0.36600
N371        N  0.42647254  0.39982823  0.11632567    -0.43700
N372        N  0.60711525  0.64103402  0.07379793    -0.43700
C373        C  0.56513184  0.43698488  0.88430907    -0.00100
C374        C  0.54085531  0.40432957  0.84892793    -0.11900
C375        C  0.54815081  0.40983015  0.79496492     0.02200
C376        C  0.58067732  0.44892278  0.77494028    -0.00200
C377        C  0.60362878  0.48217616  0.81001709    -0.11900
C378        C  0.59604073  0.47679416  0.86396747     0.02100
H379        H  0.51702868  0.37370358  0.86355741     0.15000
H380        H  0.62817987  0.51244367  0.79534901     0.15000
C381        C  0.62129381  0.51276600  0.89715248     0.36700
C382        C  0.52301260  0.37381532  0.76174255     0.36600
N383        N  0.64157829  0.54177090  0.92347523    -0.43700
N384        N  0.50286359  0.34492321  0.73519519    -0.43700
C385        C  0.51965538  0.30110770  0.13299850    -0.00100
C386        C  0.51280936  0.26439525  0.10800626    -0.11900
C387        C  0.50925464  0.23040849  0.13695352     0.02200
C388        C  0.51171576  0.23236457  0.19206993    -0.00200
C389        C  0.51367853  0.26689707  0.21712833    -0.11900
C390        C  0.51835532  0.30140100  0.18829309     0.02100
H391        H  0.51287984  0.26322649  0.06566931     0.15000
H392        H  0.51509726  0.26856349  0.25946445     0.15000
C393        C  0.52321790  0.33720467  0.21669955     0.36700
C394        C  0.50385307  0.19410510  0.10924918     0.36600
N395        N  0.52717327  0.36576744  0.23986502    -0.43700
N396        N  0.49921829  0.16483415  0.08715931    -0.43700
C397        C  0.04958181  0.54337954  0.89369849    -0.00100
C398        C  0.03691009  0.50059955  0.89282455    -0.11900
C399        C  0.99440872  0.46928971  0.89557734     0.02200
C400        C  0.96359716  0.48069614  0.89800623    -0.00200
C401        C  0.97611538  0.52339644  0.89328801    -0.11900
C402        C  0.01874355  0.55476825  0.89172026     0.02100
H403        H  0.06037759  0.49149933  0.89383461     0.15000
H404        H  0.95275261  0.53260258  0.89439713     0.15000
C405        C  0.02989592  0.59827420  0.88965750     0.36700
C406        C  0.98370864  0.42595988  0.89820275     0.36600
N407        N  0.03876910  0.63311100  0.88795959    -0.43700
N408        N  0.97537803  0.39131493  0.90052277    -0.43700
C409        C  0.87408454  0.43526591  0.10878825    -0.00100
C410        C  0.86778032  0.40432873  0.14538024    -0.11900
C411        C  0.86612684  0.41070159  0.19901141     0.02200
C412        C  0.87070636  0.44896206  0.21731677    -0.00200
C413        C  0.87936003  0.48077391  0.18095556    -0.11900
C414        C  0.88132323  0.47450984  0.12735267     0.02100
H415        H  0.86246041  0.37424621  0.13198735     0.15000
H416        H  0.88362266  0.51045661  0.19429016     0.15000
C417        C  0.88953246  0.50876259  0.09269959     0.36700
C418        C  0.85779887  0.37635925  0.23356697     0.36600
N419        N  0.89612445  0.53634852  0.06518552    -0.43700
N420        N  0.85113985  0.34863627  0.26086282    -0.43700
C421        C  0.77838759  0.29510255  0.86318006    -0.00100
C422        C  0.78359208  0.29898406  0.80871230    -0.11900
C423        C  0.75420431  0.26787579  0.77485109     0.02200
C424        C  0.71821766  0.23212245  0.79536207    -0.00200
C425        C  0.71468516  0.22661879  0.84987766    -0.11900
C426        C  0.74460291  0.25741817  0.88382521     0.02100
H427        H  0.80960969  0.32757629  0.79235163     0.15000
H428        H  0.68723504  0.19920210  0.86606687     0.15000
C429        C  0.73769976  0.25106907  0.93940074     0.36700
C430        C  0.75958662  0.27572262  0.71932688     0.36600
N431        N  0.73209123  0.24586939  0.98392744    -0.43700
N432        N  0.76384659  0.28212066  0.67484209    -0.43700
C433        C  0.75140331  0.42641456  0.98393768    -0.00100
C434        C  0.74218207  0.42527872  0.03728160    -0.11900
C435        C  0.70782850  0.42796197  0.05336107     0.02200
C436        C  0.68209038  0.43117032  0.01541496    -0.00200
C437        C  0.69313886  0.43547220  0.96243590    -0.11900
C438        C  0.72787698  0.43347088  0.94641408     0.02100
H439        H  0.76087117  0.42057542  0.06625595     0.15000
H440        H  0.67323301  0.43813121  0.93331078     0.15000
C441        C  0.73629597  0.43473295  0.89124018     0.36700
C442        C  0.69736504  0.42334822  0.10817715     0.36600
N443        N  0.74314612  0.43554127  0.84708674    -0.43700
N444        N  0.68878772  0.41951101  0.15203790    -0.43700
loop_ 
_geom_bond_atom_site_label_1 
_geom_bond_atom_site_label_2 
_geom_bond_distance 
_geom_bond_site_symmetry_2 
_ccdc_geom_bond_type 
In1           O3   2.230       .  S
In1           O4   2.269       .  S
In1          O12   2.221       .  S
In1           O6   2.224       .  S
In1           O8   2.236       .  S
In1           O9   2.260   1_556  S
In1          O10   2.199       .  S
In1          O13   2.210   1_556  S
C2            O8   1.265       .  A
C2           O10   1.259       .  A
C2          C433   1.462       .  S
O3           C11   1.261       .  A
O4           C11   1.266       .  A
C5           O12   1.265       .  A
C5            O6   1.264       .  A
C5          C400   1.478       .  S
C7            O9   1.271       .  A
C7           O13   1.259       .  A
C7          C409   1.489       .  S
C11         C421   1.487       .  S
In14         O16   2.248       .  S
In14         O17   2.272       .  S
In14         O25   2.231       .  S
In14         O19   2.225       .  S
In14         O21   2.247       .  S
In14         O22   2.272   1_554  S
In14         O23   2.193       .  S
In14         O26   2.225   1_554  S
C15          O21   1.264       .  A
C15          O23   1.258       .  A
C15         C436   1.459       .  S
O16          C24   1.261       .  A
O17          C24   1.266       .  A
C18          O25   1.265       .  A
C18          O19   1.263       .  A
C18         C361   1.478       .  S
C20          O22   1.271       .  A
C20          O26   1.259       .  A
C20         C373   1.495       .  S
C24         C385   1.493       .  S
In27         O29   2.231       .  S
In27         O30   2.271       .  S
In27         O38   2.217       .  S
In27         O32   2.224       .  S
In27         O34   2.244       .  S
In27         O35   2.273       .  S
In27         O36   2.188       .  S
In27         O39   2.217       .  S
C28          O34   1.265       .  A
C28          O36   1.259       .  A
C28         C337   1.458       .  S
O29          C37   1.262       .  A
O30          C37   1.268       .  A
C31          O38   1.266       .  A
C31          O32   1.263       .  A
C31         C328   1.479       .  S
C33          O35   1.271       .  A
C33          O39   1.258       .  A
C33         C376   1.492       .  S
C37         C352   1.493       .  S
In40         O42   2.228       .  S
In40         O43   2.257       .  S
In40         O51   2.211       .  S
In40         O45   2.229       .  S
In40         O47   2.238       .  S
In40         O48   2.281       .  S
In40         O49   2.194       .  S
In40         O52   2.204       .  S
C41          O47   1.267       .  A
C41          O49   1.262       .  A
C41         C340   1.476       .  S
O42          C50   1.263       .  A
O43          C50   1.269       .  A
C44          O51   1.266       .  A
C44          O45   1.265       .  A
C44         C304   1.479       .  S
C46          O48   1.273       .  A
C46          O52   1.259       .  A
C46         C313   1.495       .  S
C50         C424   1.485       .  S
In53         O55   2.227       .  S
In53         O56   2.267       .  S
In53         O64   2.219       .  S
In53         O58   2.215       .  S
In53         O60   2.231       .  S
In53         O61   2.265       .  S
In53         O62   2.191       .  S
In53         O65   2.224       .  S
C54          O60   1.266       .  A
C54          O62   1.261       .  A
C54         C289   1.460       .  S
O55          C63   1.263       .  A
O56          C63   1.270       .  A
C57          O64   1.266       .  A
C57          O58   1.265       .  A
C57         C277   1.475       .  S
C59          O61   1.272       .  A
C59          O65   1.259       .  A
C59         C316   1.494       .  S
C63         C388   1.487       .  S
In66         O68   2.235       .  S
In66         O69   2.258       .  S
In66         O77   2.214       .  S
In66         O71   2.234       .  S
In66         O73   2.234       .  S
In66         O74   2.260       .  S
In66         O75   2.188       .  S
In66         O78   2.212       .  S
C67          O73   1.270       .  A
C67          O75   1.262       .  A
C67         C292   1.470       .  S
O68          C76   1.264       .  A
O69          C76   1.269       .  A
C70          O77   1.266       .  A
C70          O71   1.268       .  A
C70         C265   1.484       .  S
C72          O74   1.273       .  A
C72          O78   1.260       .  A
C72         C412   1.490       .  S
C76         C349   1.490       .  S
In79         O81   2.223       .  S
In79         O82   2.253       .  S
In79         O90   2.220       .  S
In79         O84   2.218       .  S
In79         O86   2.241       .  S
In79         O87   2.247   1_556  S
In79         O88   2.189       .  S
In79         O91   2.219   1_556  S
C80          O86   1.268       .  A
C80          O88   1.261       .  A
C80         C256   1.465       .  S
O81          C89   1.264       .  A
O82          C89   1.269       .  A
C83          O90   1.265       .  A
C83          O84   1.266       .  A
C83         C397   1.475       .  S
C85          O87   1.270       .  A
C85          O91   1.260       .  A
C85         C229   1.488       .  S
C89         C241   1.485       .  S
In92         O94   2.225       .  S
In92         O95   2.266       .  S
In92        O103   2.215       .  S
In92         O97   2.232       .  S
In92         O99   2.247       .  S
In92        O100   2.267   1_554  S
In92        O101   2.184   1_554  S
In92        O104   2.221   1_554  S
C93          O99   1.270       .  A
C93         O101   1.262   1_554  A
C93         C253   1.476   1_554  S
O94         C102   1.264       .  A
O95         C102   1.270       .  A
C96         O103   1.266       .  A
C96          O97   1.268       .  A
C96         C364   1.481       .  S
C98         O100   1.273       .  A
C98         O104   1.261       .  A
C98         C205   1.496       .  S
C102        C217   1.489       .  S
In105       O107   2.230       .  S
In105       O108   2.262       .  S
In105       O116   2.213       .  S
In105       O110   2.225       .  S
In105       O112   2.231       .  S
In105       O113   2.255       .  S
In105       O114   2.199       .  S
In105       O117   2.220       .  S
C106        O112   1.269       .  A
C106        O114   1.262       .  A
C106        C193   1.473       .  S
O107        C115   1.264       .  A
O108        C115   1.269       .  A
C109        O116   1.266       .  A
C109        O110   1.267       .  A
C109        C280   1.480       .  S
C111        O113   1.273       .  A
C111        O117   1.260       .  A
C111        C184   1.492       .  S
C115        C220   1.489       .  S
In118       O120   2.223       .  S
In118       O121   2.247       .  S
In118       O129   2.228       .  S
In118       O123   2.230       .  S
In118       O125   2.238       .  S
In118       O126   2.273       .  S
In118       O127   2.204       .  S
In118       O130   2.203       .  S
C119        O125   1.266       .  A
C119        O127   1.260       .  A
C119        C196   1.465       .  S
O120        C128   1.263       .  A
O121        C128   1.268       .  A
C122        O129   1.265       .  A
C122        O123   1.264       .  A
C122        C268   1.480       .  S
C124        O126   1.269       .  A
C124        O130   1.259       .  A
C124        C232   1.489       .  S
C128        C169   1.481       .  S
In131       O133   2.226       .  S
In131       O134   2.264       .  S
In131       O142   2.234       .  S
In131       O136   2.217       .  S
In131       O138   2.236       .  S
In131       O139   2.273       .  S
In131       O140   2.197       .  S
In131       O143   2.220       .  S
C132        O138   1.266       .  A
C132        O140   1.260       .  A
C132        C157   1.460       .  S
O133        C141   1.260       .  A
O134        C141   1.268       .  A
C135        O142   1.266       .  A
C135        O136   1.263       .  A
C135        C325   1.478       .  S
C137        O139   1.272       .  A
C137        O143   1.260       .  A
C137        C208   1.496       .  S
C141        C172   1.482       .  S
In144       O146   2.222       .  S
In144       O147   2.271       .  S
In144       O155   2.218       .  S
In144       O149   2.223       .  S
In144       O151   2.232       .  S
In144       O152   2.263       .  S
In144       O153   2.205       .  S
In144       O156   2.219       .  S
C145        O151   1.266       .  A
C145        O153   1.260       .  A
C145        C160   1.464       .  S
O146        C154   1.260       .  A
O147        C154   1.268       .  A
C148        O155   1.266       .  A
C148        O149   1.264       .  A
C148        C301   1.476       .  S
C150        O152   1.272       .  A
C150        O156   1.260       .  A
C150        C181   1.493       .  S
C154        C244   1.485       .  S
C157        C158   1.402       .  A
C157        C162   1.406       .  A
C158        C159   1.394       .  A
C158        H163   1.085       .  S
C159        C160   1.407       .  A
C159        C166   1.444       .  S
C160        C161   1.405       .  A
C161        C162   1.397       .  A
C161        H164   1.085       .  S
C162        C165   1.445       .  S
C165        N167   1.157       .  T
C166        N168   1.157       .  T
C169        C170   1.403       .  A
C169        C174   1.413       .  A
C170        C171   1.401       .  A
C170        H175   1.085       .  S
C171        C172   1.414       .  A
C171        C178   1.444       .  S
C172        C173   1.404       .  A
C173        C174   1.404       .  A
C173        H176   1.085       .  S
C174        C177   1.444       .  S
C177        N179   1.157       .  T
C178        N180   1.157       .  T
C181        C182   1.403       .  A
C181        C186   1.420       .  A
C182        C183   1.404       .  A
C182        H187   1.084       .  S
C183        C184   1.421       .  A
C183        C190   1.445       .  S
C184        C185   1.401       .  A
C185        C186   1.401       .  A
C185        H188   1.085       .  S
C186        C189   1.444       .  S
C189        N191   1.157       .  T
C190        N192   1.158       .  T
C193        C194   1.405       .  A
C193        C198   1.413       .  A
C194        C195   1.395       .  A
C194        H199   1.085       .  S
C195        C196   1.409       .  A
C195        C202   1.446       .  S
C196        C197   1.401       .  A
C197        C198   1.398       .  A
C197        H200   1.085       .  S
C198        C201   1.444       .  S
C201        N203   1.157       .  T
C202        N204   1.158       .  T
C205        C206   1.402       .  A
C205        C210   1.421       .  A
C206        C207   1.404       .  A
C206        H211   1.085       .  S
C207        C208   1.421       .  A
C207        C214   1.444       .  S
C208        C209   1.403       .  A
C209        C210   1.405       .  A
C209        H212   1.084       .  S
C210        C213   1.445       .  S
C213        N215   1.157       .  T
C214        N216   1.157       .  T
C217        C218   1.406       .  A
C217        C222   1.414       .  A
C218        C219   1.404       .  A
C218        H223   1.085       .  S
C219        C220   1.413       .  A
C219        C226   1.444       .  S
C220        C221   1.406       .  A
C221        C222   1.406       .  A
C221        H224   1.085       .  S
C222        C225   1.444       .  S
C225        N227   1.157   1_554  T
C226        N228   1.157       .  T
C229        C230   1.411       .  A
C229        C234   1.410       .  A
C230        C231   1.405       .  A
C230        H235   1.084       .  S
C231        C232   1.412       .  A
C231        C238   1.444       .  S
C232        C233   1.409       .  A
C233        C234   1.398       .  A
C233        H236   1.084       .  S
C234        C237   1.444       .  S
C237        N239   1.157       .  T
C238        N240   1.158       .  T
C241        C242   1.406       .  A
C241        C246   1.413       .  A
C242        C243   1.404       .  A
C242        H247   1.085       .  S
C243        C244   1.412       .  A
C243        C250   1.443       .  S
C244        C245   1.406       .  A
C245        C246   1.403       .  A
C245        H248   1.085       .  S
C246        C249   1.445       .  S
C249        N251   1.157       .  T
C250        N252   1.157       .  T
C253        C254   1.405       .  A
C253        C258   1.414       .  A
C254        C255   1.390       .  A
C254        H259   1.085       .  S
C255        C256   1.407       .  A
C255        C262   1.445       .  S
C256        C257   1.403       .  A
C257        C258   1.402       .  A
C257        H260   1.085       .  S
C258        C261   1.443   1_556  S
C261        N263   1.157       .  T
C262        N264   1.157       .  T
C265        C266   1.407       .  A
C265        C270   1.414       .  A
C266        C267   1.402   1_655  A
C266        H271   1.084       .  S
C267        C268   1.411       .  A
C267        C274   1.444       .  S
C268        C269   1.403       .  A
C269        C270   1.399   1_455  A
C269        H272   1.085       .  S
C270        C273   1.444       .  S
C273        N275   1.157       .  T
C274        N276   1.157       .  T
C277        C278   1.403       .  A
C277        C282   1.410       .  A
C278        C279   1.397       .  A
C278        H283   1.085       .  S
C279        C280   1.413   1_545  A
C279        C286   1.444   1_545  S
C280        C281   1.406       .  A
C281        C282   1.399   1_565  A
C281        H284   1.084       .  S
C282        C285   1.444       .  S
C285        N287   1.157       .  T
C286        N288   1.157       .  T
C289        C290   1.400       .  A
C289        C294   1.407       .  A
C290        C291   1.398       .  A
C290        H295   1.085       .  S
C291        C292   1.413       .  A
C291        C298   1.443       .  S
C292        C293   1.404       .  A
C293        C294   1.391       .  A
C293        H296   1.085       .  S
C294        C297   1.445       .  S
C297        N299   1.157       .  T
C298        N300   1.157       .  T
C301        C302   1.403       .  A
C301        C306   1.413       .  A
C302        C303   1.399   1_565  A
C302        H307   1.085       .  S
C303        C304   1.415       .  A
C303        C310   1.444       .  S
C304        C305   1.404       .  A
C305        C306   1.397   1_545  A
C305        H308   1.085       .  S
C306        C309   1.444       .  S
C309        N311   1.157       .  T
C310        N312   1.157       .  T
C313        C314   1.404       .  A
C313        C318   1.422       .  A
C314        C315   1.407       .  A
C314        H319   1.085       .  S
C315        C316   1.422       .  A
C315        C322   1.445       .  S
C316        C317   1.400       .  A
C317        C318   1.401       .  A
C317        H320   1.085       .  S
C318        C321   1.444       .  S
C321        N323   1.157       .  T
C322        N324   1.158       .  T
C325        C326   1.404       .  A
C325        C330   1.415       .  A
C326        C327   1.401       .  A
C326        H331   1.085       .  S
C327        C328   1.416       .  A
C327        C334   1.445       .  S
C328        C329   1.402       .  A
C329        C330   1.395       .  A
C329        H332   1.085       .  S
C330        C333   1.445       .  S
C333        N335   1.157       .  T
C334        N336   1.158       .  T
C337        C338   1.400       .  A
C337        C342   1.403       .  A
C338        C339   1.401       .  A
C338        H343   1.084       .  S
C339        C340   1.416       .  A
C339        C346   1.444       .  S
C340        C341   1.406       .  A
C341        C342   1.391       .  A
C341        H344   1.084       .  S
C342        C345   1.446       .  S
C345        N347   1.157       .  T
C346        N348   1.157       .  T
C349        C350   1.406       .  A
C349        C354   1.414       .  A
C350        C351   1.407       .  A
C350        H355   1.085       .  S
C351        C352   1.415       .  A
C351        C358   1.444       .  S
C352        C353   1.406       .  A
C353        C354   1.404       .  A
C353        H356   1.085       .  S
C354        C357   1.444       .  S
C357        N359   1.157       .  T
C358        N360   1.157       .  T
C361        C362   1.404       .  A
C361        C366   1.411       .  A
C362        C363   1.398       .  A
C362        H367   1.085       .  S
C363        C364   1.414       .  A
C363        C370   1.445       .  S
C364        C365   1.405       .  A
C365        C366   1.400       .  A
C365        H368   1.084       .  S
C366        C369   1.444       .  S
C369        N371   1.157       .  T
C370        N372   1.157       .  T
C373        C374   1.403       .  A
C373        C378   1.421       .  A
C374        C375   1.403       .  A
C374        H379   1.084       .  S
C375        C376   1.420       .  A
C375        C382   1.445       .  S
C376        C377   1.402       .  A
C377        C378   1.404       .  A
C377        H380   1.084       .  S
C378        C381   1.444       .  S
C381        N383   1.157       .  T
C382        N384   1.157       .  T
C385        C386   1.406       .  A
C385        C390   1.417       .  A
C386        C387   1.406       .  A
C386        H391   1.085       .  S
C387        C388   1.413       .  A
C387        C394   1.444       .  S
C388        C389   1.403       .  A
C389        C390   1.406       .  A
C389        H392   1.085       .  S
C390        C393   1.444       .  S
C393        N395   1.157       .  T
C394        N396   1.157       .  T
C397        C398   1.403       .  A
C397        C402   1.411       .  A
C398        C399   1.397   1_455  A
C398        H403   1.085       .  S
C399        C400   1.412       .  A
C399        C406   1.444       .  S
C400        C401   1.406       .  A
C401        C402   1.399   1_655  A
C401        H404   1.085       .  S
C402        C405   1.445       .  S
C405        N407   1.157       .  T
C406        N408   1.157       .  T
C409        C410   1.401       .  A
C409        C414   1.420       .  A
C410        C411   1.401       .  A
C410        H415   1.085       .  S
C411        C412   1.421       .  A
C411        C418   1.445       .  S
C412        C413   1.401       .  A
C413        C414   1.401       .  A
C413        H416   1.085       .  S
C414        C417   1.445       .  S
C417        N419   1.157       .  T
C418        N420   1.157       .  T
C421        C422   1.405       .  A
C421        C426   1.414       .  A
C422        C423   1.402       .  A
C422        H427   1.085       .  S
C423        C424   1.412       .  A
C423        C430   1.444       .  S
C424        C425   1.407       .  A
C425        C426   1.406       .  A
C425        H428   1.085       .  S
C426        C429   1.444       .  S
C429        N431   1.157       .  T
C430        N432   1.157       .  T
C433        C434   1.406   1_556  A
C433        C438   1.405       .  A
C434        C435   1.395       .  A
C434        H439   1.085       .  S
C435        C436   1.404       .  A
C435        C442   1.445       .  S
C436        C437   1.404   1_554  A
C437        C438   1.395       .  A
C437        H440   1.085       .  S
C438        C441   1.444       .  S
C441        N443   1.157       .  T
C442        N444   1.157       .  T
