geometry optimzed in LAMMPS
_audit_creation_date              2020-11-30 
_audit_creation_method            'lammps2cif' 
_symmetry_space_group_name_H-M    'P1' 
_symmetry_Int_Tables_number       1 
_symmetry_cell_setting            triclinic 
loop_ 
_symmetry_equiv_pos_as_xyz 
  x,y,z 
_cell_length_a                    42.50867642405283 
_cell_length_b                    42.532750131278476 
_cell_length_c                    21.0204550618166 
_cell_angle_alpha                 90.50898896700657 
_cell_angle_beta                  89.28735653690315 
_cell_angle_gamma                 89.92030302461788 
loop_ 
_atom_site_label 
_atom_site_type_symbol 
_atom_site_fract_x 
_atom_site_fract_y 
_atom_site_fract_z 
_atom_site_charge 
O1          O  0.38826937  0.60385170  0.04212727    -0.74340
O2          O  0.39198445  0.68942315  0.31723999    -0.74370
O3          O  0.34548144  0.64776109  0.34327450    -0.74430
O4          O  0.43468388  0.64545695  0.35140336    -0.74470
O5          O  0.43819536  0.62804080  0.25127980    -0.74410
O6          O  0.34763500  0.63172050  0.24218144    -0.74380
O7          O  0.39539228  0.67229951  0.21710963    -0.74360
O8          O  0.39000365  0.58766541  0.27421899    -0.74430
Ni9        Ni  0.39007346  0.64732600  0.35031199     1.25410
Ni10       Ni  0.39296329  0.62939289  0.24254305     1.25360
C11         C  0.38788677  0.58170398  0.33366890     0.87840
C12         C  0.39414419  0.69498957  0.25737097     0.87770
C13         C  0.33163242  0.63971032  0.29201561     0.87800
C14         C  0.45119877  0.63554548  0.30408820     0.87970
O15         O  0.39341728  0.91687020  0.05524253    -0.74340
O16         O  0.39338807  0.83053977  0.11069274    -0.74370
O17         O  0.34871362  0.87384773  0.08313934    -0.74430
O18         O  0.43805202  0.87312469  0.08092168    -0.74470
O19         O  0.43914804  0.88967365  0.18172285    -0.74410
O20         O  0.34832422  0.88922633  0.18462896    -0.74380
O21         O  0.39416296  0.84702082  0.21136596    -0.74360
O22         O  0.39296745  0.93209672  0.15700894    -0.74430
Ni23       Ni  0.39343153  0.87302061  0.07891931     1.25410
Ni24       Ni  0.39370618  0.89009090  0.18726929     1.25360
C25         C  0.39232564  0.93870567  0.09779406     0.87840
C26         C  0.39391443  0.82459286  0.17051639     0.87770
C27         C  0.33357441  0.88187262  0.13361673     0.87800
C28         C  0.45347274  0.88073805  0.13052377     0.87970
O29         O  0.13539968  0.60261729  0.21849774    -0.74340
O30         O  0.13663304  0.68957991  0.27265260    -0.74370
O31         O  0.18084313  0.64519714  0.24571764    -0.74430
O32         O  0.09137104  0.64735626  0.24356616    -0.74470
O33         O  0.08876738  0.63216255  0.01128326    -0.74410
O34         O  0.17937118  0.63104284  0.01408783    -0.74380
O35         O  0.13421624  0.67423875  0.04019855    -0.74360
O36         O  0.13382751  0.58880610  0.32040431    -0.74430
Ni37       Ni  0.13612877  0.64673523  0.24147048     1.25410
Ni38       Ni  0.13402914  0.63103313  0.01670891     1.25360
C39         C  0.13405821  0.58133291  0.26139445     0.87840
C40         C  0.13537052  0.69614974  0.99911004     0.87770
C41         C  0.19504206  0.63793443  0.29680675     0.87800
C42         C  0.07517003  0.64008315  0.29299665     0.87970
O43         O  0.13603845  0.91729292  0.20762040    -0.74340
O44         O  0.13736629  0.83149077  0.14792850    -0.74370
O45         O  0.18151476  0.87469740  0.17925177    -0.74430
O46         O  0.09205488  0.87363742  0.17760318    -0.74470
O47         O  0.09193334  0.89072715  0.07769869    -0.74410
O48         O  0.18261574  0.89014140  0.07829739    -0.74380
O49         O  0.13727640  0.84812178  0.04779871    -0.74360
O50         O  0.13773860  0.93298870  0.10660802    -0.74430
Ni51       Ni  0.13668031  0.87370167  0.18166105     1.25410
Ni52       Ni  0.13736536  0.89111630  0.07403184     1.25360
C53         C  0.13753273  0.93922861  0.16624696     0.87840
C54         C  0.13738432  0.82569257  0.08785467     0.87770
C55         C  0.19698843  0.88264070  0.12939635     0.87800
C56         C  0.07713287  0.88146708  0.12771749     0.87970
O57         O  0.42135543  0.38952416  0.96505042    -0.74340
O58         O  0.33490410  0.38610289  0.02220574    -0.74370
O59         O  0.37582990  0.43235348  0.99257643    -0.74430
O60         O  0.37989367  0.34292850  0.99297846    -0.74470
O61         O  0.39524195  0.34401060  0.09379864    -0.74410
O62         O  0.39120820  0.43462073  0.09341927    -0.74380
O63         O  0.35072264  0.38765273  0.12267488    -0.74360
O64         O  0.43587122  0.39117834  0.06647030    -0.74430
Ni65       Ni  0.37744846  0.38764626  0.98960109     1.25410
Ni66       Ni  0.39383216  0.38935347  0.09763570     1.25360
C67         C  0.44288817  0.39148461  0.00717808     0.87840
C68         C  0.32860771  0.38655470  0.08214530     0.87770
C69         C  0.38257613  0.44835798  0.04236650     0.87800
C70         C  0.38805843  0.32850283  0.04329811     0.87970
O71         O  0.10571035  0.38787533  0.28702644    -0.74340
O72         O  0.19220490  0.38751508  0.23005915    -0.74370
O73         O  0.14891610  0.43234785  0.26157239    -0.74430
O74         O  0.14864988  0.34291329  0.25761478    -0.74470
O75         O  0.13401793  0.34341460  0.15606561    -0.74410
O76         O  0.13386116  0.43393652  0.16034297    -0.74380
O77         O  0.17651520  0.38872969  0.12952653    -0.74360
O78         O  0.09121721  0.38878702  0.18553933    -0.74430
Ni79       Ni  0.14955192  0.38761866  0.26260663     1.25410
Ni80       Ni  0.13338372  0.38869882  0.15427227     1.25360
C81         C  0.08418243  0.38905153  0.24489597     0.87840
C82         C  0.19858494  0.38803460  0.17014613     0.87770
C83         C  0.14058331  0.44789409  0.21274956     0.87800
C84         C  0.14108702  0.32837320  0.20660738     0.87970
O85         O  0.42085417  0.13459772  0.12162244    -0.74340
O86         O  0.33429790  0.13400516  0.06848812    -0.74370
O87         O  0.37687372  0.08957045  0.10051354    -0.74430
O88         O  0.37832766  0.17890658  0.09139356    -0.74470
O89         O  0.39241079  0.17591333  0.32222469    -0.74410
O90         O  0.39323052  0.08533009  0.99982431    -0.74380
O91         O  0.35040999  0.12911919  0.30075496    -0.74360
O92         O  0.43563503  0.13214488  0.01956247    -0.74430
Ni93       Ni  0.37696790  0.13431747  0.09907437     1.25410
Ni94       Ni  0.39362306  0.13053200  0.32366620     1.25360
C95         C  0.44248411  0.13454543  0.07850010     0.87840
C96         C  0.32805648  0.13149562  0.00899029     0.87770
C97         C  0.38479572  0.07254101  0.05245429     0.87800
C98         C  0.38590146  0.19221480  0.03912456     0.87970
O99         O  0.10868031  0.13333142  0.13244791    -0.74340
O100        O  0.19455335  0.13142943  0.18953276    -0.74370
O101        O  0.15109952  0.08774928  0.15982551    -0.74430
O102        O  0.15253221  0.17708392  0.16066338    -0.74470
O103        O  0.13606866  0.17786528  0.26158691    -0.74410
O104        O  0.13415623  0.08722949  0.26055680    -0.74380
O105        O  0.17748806  0.13166839  0.29017252    -0.74360
O106        O  0.09267929  0.13396086  0.23388616    -0.74430
Ni107      Ni  0.15231599  0.13233469  0.15705694     1.25410
Ni108      Ni  0.13449472  0.13263225  0.26514479     1.25360
C109        C  0.08656993  0.13487273  0.17449604     0.87840
C110        C  0.20010677  0.13121245  0.24946749     0.87770
C111        C  0.14293663  0.07262498  0.20964193     0.87800
C112        C  0.14432726  0.19241445  0.21074960     0.87970
O113        O  0.63695861  0.41717903  0.03802950    -0.74340
O114        O  0.63319968  0.33191614  0.30975319    -0.74370
O115        O  0.67983640  0.37222463  0.34132775    -0.74430
O116        O  0.59042472  0.37711990  0.34130204    -0.74470
O117        O  0.59115334  0.39380928  0.24092262    -0.74410
O118        O  0.68151127  0.38866214  0.24101859    -0.74380
O119        O  0.63442115  0.34895128  0.20990191    -0.74360
O120        O  0.63884708  0.43351901  0.27076516    -0.74430
Ni121      Ni  0.63500095  0.37390219  0.34440931     1.25410
Ni122      Ni  0.63646553  0.39181028  0.23704762     1.25360
C123        C  0.63895887  0.43933917  0.33061529     0.87840
C124        C  0.63362338  0.32634966  0.24958430     0.87770
C125        C  0.69556585  0.37990162  0.29156558     0.87800
C126        C  0.57608105  0.38687022  0.29211417     0.87970
O127        O  0.63636127  0.10219527  0.05031109    -0.74340
O128        O  0.63752474  0.18960254  0.10217088    -0.74370
O129        O  0.68193099  0.14490646  0.07642987    -0.74430
O130        O  0.59242967  0.14715261  0.07397605    -0.74470
O131        O  0.58975841  0.13265994  0.17542089    -0.74410
O132        O  0.68058010  0.13128112  0.17843502    -0.74380
O133        O  0.63524768  0.17482321  0.20340459    -0.74360
O134        O  0.63477143  0.08905172  0.15256318    -0.74430
Ni135      Ni  0.63718125  0.14650135  0.07209910     1.25410
Ni136      Ni  0.63510519  0.13146923  0.18103417     1.25360
C137        C  0.63482455  0.08118413  0.09376711     0.87840
C138        C  0.63591363  0.19651398  0.16180118     0.87770
C139        C  0.69621274  0.13755574  0.12736109     0.87800
C140        C  0.57616675  0.14023494  0.12352746     0.87970
O141        O  0.88953742  0.41692153  0.22382300    -0.74340
O142        O  0.89421308  0.33070026  0.27760464    -0.74370
O143        O  0.84711023  0.37154088  0.25165785    -0.74430
O144        O  0.93635969  0.37621077  0.24793847    -0.74470
O145        O  0.93682186  0.39109368  0.01667785    -0.74410
O146        O  0.84629373  0.38730585  0.01965930    -0.74380
O147        O  0.89317410  0.34666988  0.04564017    -0.74360
O148        O  0.88940491  0.43185016  0.32579727    -0.74430
Ni149      Ni  0.89184487  0.37318455  0.24670866     1.25410
Ni150      Ni  0.89147471  0.38975614  0.02225642     1.25360
C151        C  0.88847601  0.43859282  0.26663274     0.87840
C152        C  0.89407619  0.32460169  0.00401073     0.87770
C153        C  0.83179486  0.37902893  0.30233528     0.87800
C154        C  0.95129724  0.38489423  0.29744529     0.87970
O155        O  0.89336944  0.10263601  0.20116293    -0.74340
O156        O  0.89134172  0.18965498  0.15142668    -0.74370
O157        O  0.84757303  0.14501129  0.17653999    -0.74430
O158        O  0.93708955  0.14758689  0.17783481    -0.74470
O159        O  0.93953384  0.13232902  0.07624452    -0.74410
O160        O  0.84868621  0.13132004  0.07412565    -0.74380
O161        O  0.89410903  0.17470946  0.04956526    -0.74360
O162        O  0.89446157  0.08899758  0.09865167    -0.74430
Ni163      Ni  0.89228922  0.14676272  0.18035728     1.25410
Ni164      Ni  0.89419142  0.13134300  0.07101755     1.25360
C165        C  0.89430176  0.08140454  0.15738201     0.87840
C166        C  0.89279373  0.19637542  0.09201681     0.87770
C167        C  0.83314236  0.13763681  0.12557232     0.87800
C168        C  0.95322774  0.14029834  0.12802531     0.87970
O169        O  0.60668140  0.63137057  0.97406482    -0.74340
O170        O  0.69345202  0.63350005  0.02589215    -0.74370
O171        O  0.65167188  0.58783688  0.99756469    -0.74430
O172        O  0.64881473  0.67715966  0.00031014    -0.74470
O173        O  0.63522204  0.67670299  0.10313366    -0.74410
O174        O  0.63539746  0.58601991  0.09866615    -0.74380
O175        O  0.67781950  0.63113714  0.12728828    -0.74360
O176        O  0.59240503  0.63139867  0.07629817    -0.74430
Ni177      Ni  0.65070899  0.63250182  0.99582671     1.25410
Ni178      Ni  0.63462968  0.63132676  0.10494089     1.25360
C179        C  0.58513475  0.63106346  0.01741031     0.87840
C180        C  0.69983509  0.63227806  0.08543507     0.87770
C181        C  0.64419578  0.57209105  0.04701736     0.87800
C182        C  0.64177588  0.69174319  0.05193870     0.87970
O183        O  0.91994465  0.63464806  0.29087390    -0.74340
O184        O  0.83377464  0.63326032  0.23599650    -0.74370
O185        O  0.87633875  0.58942358  0.26938428    -0.74430
O186        O  0.87721051  0.67854012  0.25943143    -0.74470
O187        O  0.89227631  0.67554296  0.15751046    -0.74410
O188        O  0.89270926  0.58501244  0.16871583    -0.74380
O189        O  0.85020134  0.62930937  0.13511818    -0.74360
O190        O  0.93521393  0.63177492  0.18909467    -0.74430
Ni191      Ni  0.87620882  0.63403014  0.26748524     1.25410
Ni192      Ni  0.89321042  0.63020567  0.15901743     1.25360
C193        C  0.94174678  0.63443115  0.24812835     0.87840
C194        C  0.82789587  0.63112707  0.17629577     0.87770
C195        C  0.88402409  0.57233878  0.22133241     0.87800
C196        C  0.88497070  0.69183337  0.20727793     0.87970
O197        O  0.60895400  0.88600267  0.12641777    -0.74340
O198        O  0.69460570  0.89010033  0.06539141    -0.74370
O199        O  0.64937924  0.93263315  0.09774340    -0.74430
O200        O  0.65400863  0.84322658  0.09583720    -0.74470
O201        O  0.63761759  0.84218581  0.32902795    -0.74410
O202        O  0.63308201  0.93264922  0.99725861    -0.74380
O203        O  0.67775225  0.88949753  0.29895727    -0.74360
O204        O  0.59303664  0.88499513  0.02564034    -0.74430
Ni205      Ni  0.65243975  0.88804058  0.09983070     1.25410
Ni206      Ni  0.63483568  0.88734594  0.32578662     1.25360
C207        C  0.58693696  0.88446062  0.08537262     0.87840
C208        C  0.70030566  0.89040759  0.00523766     0.87770
C209        C  0.63995644  0.94738113  0.04875073     0.87800
C210        C  0.64605635  0.82775628  0.04614246     0.87970
O211        O  0.92143367  0.88500033  0.12629380    -0.74340
O212        O  0.83563578  0.88890506  0.18680948    -0.74370
O213        O  0.87999363  0.93145733  0.15258271    -0.74430
O214        O  0.87711182  0.84215849  0.15889108    -0.74470
O215        O  0.89305151  0.84368148  0.25932347    -0.74410
O216        O  0.89680741  0.93405412  0.25251455    -0.74380
O217        O  0.85244255  0.89129382  0.28652351    -0.74360
O218        O  0.93725541  0.88609563  0.22714563    -0.74430
Ni219      Ni  0.87786121  0.88685340  0.15264491     1.25410
Ni220      Ni  0.89541769  0.88888295  0.25998350     1.25360
C221        C  0.94341615  0.88449816  0.16749835     0.87840
C222        C  0.82989369  0.89065944  0.24687401     0.87770
C223        C  0.88963251  0.94748561  0.20023493     0.87800
C224        C  0.88497452  0.82797565  0.20971010     0.87970
C225        C  0.73332622  0.89151872  0.31440432    -0.05380
C226        C  0.75815835  0.89291044  0.02436855    -0.32810
C227        C  0.78954159  0.89285179  0.33673628     0.36440
C228        C  0.79683429  0.89160518  0.27091622    -0.05740
C229        C  0.77199299  0.89064629  0.22758921    -0.32710
C230        C  0.74060878  0.89073593  0.24855630     0.36350
H231        H  0.75329189  0.89379964  0.07498929     0.16720
O232        O  0.81278993  0.89413567  0.04799833    -0.60200
H233        H  0.77685809  0.88961193  0.17697623     0.16730
O234        O  0.71736404  0.88938241  0.20396265    -0.60300
H235        H  0.71343044  0.91154998  0.19209426     0.43730
H236        H  0.81643711  0.87198302  0.06033522     0.43680
C237        C  0.88575444  0.72649154  0.20605759    -0.05380
C238        C  0.89630832  0.74290786  0.25989853    -0.32810
C239        C  0.89611911  0.77577879  0.26216497     0.36440
C240        C  0.88504962  0.79301220  0.20988951    -0.05740
C241        C  0.87445141  0.77638393  0.15595309    -0.32710
C242        C  0.87502615  0.74347290  0.15356787     0.36350
H243        H  0.90508807  0.73012271  0.30032986     0.16720
O244        O  0.90738332  0.79064631  0.31532805    -0.60200
H245        H  0.86542683  0.78888218  0.11542027     0.16730
O246        O  0.86358102  0.72817754  0.10105050    -0.60300
H247        H  0.88198244  0.72548514  0.07212322     0.43730
H248        H  0.88882807  0.79336746  0.34384789     0.43680
C249        C  0.64570659  0.79280047  0.04785763    -0.05380
C250        C  0.63228144  0.77581226  0.99738341    -0.32810
C251        C  0.63029550  0.74299785  0.99895915     0.36440
C252        C  0.64174818  0.72642382  0.05163380    -0.05740
C253        C  0.65494368  0.74317603  0.10232496    -0.32710
C254        C  0.65740676  0.77599609  0.10046184     0.36350
H255        H  0.62294539  0.78795986  0.95663865     0.16720
O256        O  0.61678338  0.72734989  0.94892415    -0.60200
H257        H  0.66423241  0.73071057  0.14274791     0.16730
O258        O  0.67140862  0.79125282  0.15038517    -0.60300
H259        H  0.69404704  0.79236448  0.13858775     0.43730
H260        H  0.59445051  0.72440997  0.96173840     0.43680
C261        C  0.73284159  0.63184129  0.10742355    -0.05380
C262        C  0.73932845  0.62079515  0.16886417    -0.32810
C263        C  0.77007609  0.62018795  0.19177625     0.36440
C264        C  0.79509246  0.63110623  0.15355234    -0.05740
C265        C  0.78871093  0.64190144  0.09194692    -0.32710
C266        C  0.75793339  0.64257065  0.06902815     0.36350
H267        H  0.72051790  0.61217005  0.19925250     0.16720
O268        O  0.77542212  0.60826343  0.25108140    -0.60200
H269        H  0.80760989  0.65045045  0.06168394     0.16730
O270        O  0.75267144  0.65434083  0.00957792    -0.60300
H271        H  0.74915880  0.67719673  0.01622259     0.43730
H272        H  0.77964277  0.58555131  0.24402450     0.43680
C273        C  0.89522756  0.04743106  0.17269100    -0.05380
C274        C  0.90307348  0.02616140  0.12346825    -0.32810
C275        C  0.90198985  0.99385147  0.13286177     0.36440
C276        C  0.89311339  0.98180198  0.19259082    -0.05740
C277        C  0.88665954  0.00281857  0.24305834    -0.32710
C278        C  0.88750721  0.03550282  0.23341843     0.36350
H279        H  0.90986331  0.03449925  0.07671404     0.16720
O280        O  0.91046341  0.97418046  0.08342659    -0.60200
H281        H  0.87983421  0.99393864  0.28927843     0.16730
O282        O  0.88016412  0.05536672  0.28317330    -0.60300
H283        H  0.85701302  0.05811037  0.28164196     0.43730
H284        H  0.89114813  0.97154131  0.05799132     0.43680
C285        C  0.88539368  0.47204980  0.24937988    -0.05380
C286        C  0.86852362  0.49187588  0.29102368    -0.32810
C287        C  0.86677477  0.52410170  0.28060014     0.36440
C288        C  0.88286301  0.53761246  0.22830569    -0.05740
C289        C  0.89871818  0.51759342  0.18483886    -0.32710
C290        C  0.89985371  0.48493987  0.19485218     0.36350
H291        H  0.85663385  0.48232995  0.33247779     0.16720
O292        O  0.84957345  0.54215531  0.32284242    -0.60200
H293        H  0.91103127  0.52730419  0.14410589     0.16730
O294        O  0.91680131  0.46623286  0.15344515    -0.60300
H295        H  0.90206556  0.46097908  0.11875373     0.43730
H296        H  0.82830894  0.54365356  0.30419168     0.43680
C297        C  0.89425067  0.29177113  0.02617513    -0.05380
C298        C  0.87754759  0.28408560  0.08206977    -0.32810
C299        C  0.87699011  0.25317863  0.10454423     0.36440
C300        C  0.89343367  0.22942108  0.07106661    -0.05740
C301        C  0.91033136  0.23717212  0.01542843    -0.32710
C302        C  0.91085868  0.26806743  0.99293266     0.36350
H303        H  0.86431306  0.30201351  0.10781479     0.16720
O304        O  0.85860570  0.24600934  0.15655976    -0.60200
H305        H  0.92351733  0.21924766  0.98957223     0.16730
O306        O  0.92918579  0.27526401  0.94084483    -0.60300
H307        H  0.91889336  0.26507678  0.90403551     0.43730
H308        H  0.86904100  0.25594708  0.19347493     0.43680
C309        C  0.63311635  0.04719255  0.07766125    -0.05380
C310        C  0.64484066  0.03541612  0.01919291    -0.32810
C311        C  0.64611734  0.00281344  0.00729817     0.36440
C312        C  0.63589957  0.98171642  0.05451276    -0.05740
C313        C  0.62280336  0.99356454  0.11123334    -0.32710
C314        C  0.62111660  0.02579533  0.12289019     0.36350
H315        H  0.65408184  0.05138513  0.98373880     0.16720
O316        O  0.65946777  0.99188515  0.95163623    -0.60200
H317        H  0.61401128  0.97762609  0.14726771     0.16730
O318        O  0.60712427  0.03609585  0.17847799    -0.60300
H319        H  0.62385337  0.03525440  0.21084056     0.43730
H320        H  0.64152907  0.98578140  0.25784248     0.43680
C321        C  0.73121091  0.13648915  0.12667450    -0.05380
C322        C  0.74767866  0.13822634  0.18387041    -0.32810
C323        C  0.78063976  0.13803068  0.18430640     0.36440
C324        C  0.79807786  0.13659215  0.12665519    -0.05740
C325        C  0.78156691  0.13423660  0.06960781    -0.32710
C326        C  0.74860332  0.13400567  0.06916527     0.36350
H327        H  0.73490025  0.14014542  0.22842686     0.16720
O328        O  0.79548460  0.13911360  0.24164182    -0.60200
H329        H  0.79433915  0.13263657  0.02514216     0.16730
O330        O  0.73367448  0.13122121  0.01206121    -0.60300
H331        H  0.73123540  0.10828261  0.00485641     0.43730
H332        H  0.80083534  0.11691356  0.25086628     0.43680
C333        C  0.64242527  0.47224066  0.35149752    -0.05380
C334        C  0.66502147  0.49072442  0.98725318    -0.32810
C335        C  0.66706142  0.52286755  0.99972806     0.36440
C336        C  0.64564533  0.53740301  0.04258874    -0.05740
C337        C  0.62411156  0.51861434  0.07642531    -0.32710
C338        C  0.62252598  0.48607066  0.39796154     0.36350
H339        H  0.68092049  0.48021858  0.95235691     0.16720
O340        O  0.68963666  0.54001562  0.96833486    -0.60200
H341        H  0.60751528  0.52934175  0.10961138     0.16730
O342        O  0.59985372  0.46855455  0.42810518    -0.60300
H343        H  0.60965488  0.46148286  0.46806877     0.43730
H344        H  0.70741000  0.54158675  0.99831702     0.43680
C345        C  0.79691477  0.37862159  0.30080723    -0.05380
C346        C  0.78183496  0.37850416  0.24182053    -0.32810
C347        C  0.74902780  0.37882541  0.23786451     0.36440
C348        C  0.73041249  0.37904676  0.29360453    -0.05740
C349        C  0.74545651  0.37868210  0.35263222    -0.32710
C350        C  0.77831338  0.37872044  0.35657074     0.36350
H351        H  0.79567168  0.37837180  0.19852796     0.16720
O352        O  0.73547664  0.37870925  0.17919961    -0.60200
H353        H  0.73157683  0.37894047  0.39589405     0.16730
O354        O  0.79192986  0.37837754  0.08180454    -0.60300
H355        H  0.79371849  0.40083305  0.09436132     0.43730
H356        H  0.73129208  0.35624250  0.16954593     0.43680
C357        C  0.63352676  0.29337961  0.22570162    -0.05380
C358        C  0.62609144  0.26900990  0.26776617    -0.32810
C359        C  0.62631785  0.23764412  0.24742878     0.36440
C360        C  0.63458113  0.22981245  0.18377108    -0.05740
C361        C  0.64163619  0.25420257  0.14136728    -0.32710
C362        C  0.64132178  0.28567248  0.16178734     0.36350
H363        H  0.61984955  0.27421046  0.31688631     0.16720
O364        O  0.61837861  0.21489941  0.29061022    -0.60200
H365        H  0.64792130  0.24890564  0.09231659     0.16730
O366        O  0.64903274  0.30857820  0.11881535    -0.60300
H367        H  0.67218683  0.31094343  0.12164577     0.43730
H368        H  0.59524615  0.21250273  0.28727551     0.43680
C369        C  0.05336766  0.13876555  0.15599188    -0.05380
C370        C  0.04067722  0.12197311  0.10450583    -0.32810
C371        C  0.00817007  0.12309492  0.09251033     0.36440
C372        C  0.98805428  0.14120478  0.13242846    -0.05740
C373        C  0.00135038  0.15938005  0.18125888    -0.32710
C374        C  0.03351365  0.15840081  0.19292749     0.36350
H375        H  0.05569192  0.10693194  0.07537241     0.16720
O376        O  0.99617124  0.10485701  0.04451732    -0.60200
H377        H  0.98663194  0.17412237  0.21164929     0.16730
O378        O  0.04525424  0.17642499  0.24161133    -0.60300
H379        H  0.05331134  0.19576191  0.22105229     0.43730
H380        H  0.99828691  0.11776717  0.00566387     0.43680
C381        C  0.47596242  0.13824538  0.09528281    -0.05380
C382        C  0.48850134  0.12385528  0.14932578    -0.32810
C383        C  0.52101685  0.12507611  0.16110312     0.36440
C384        C  0.54133365  0.14099632  0.11854300    -0.05740
C385        C  0.52820972  0.15686136  0.06686164    -0.32710
C386        C  0.49607078  0.15549849  0.05496959     0.36350
H387        H  0.47330146  0.11065950  0.18104155     0.16720
O388        O  0.53275303  0.10915299  0.21205120    -0.60200
H389        H  0.54301111  0.17006282  0.03437862     0.16730
O390        O  0.48438437  0.17178619  0.00432443    -0.60300
H391        H  0.48903468  0.15849446  0.96637086     0.43730
H392        H  0.53221321  0.12448374  0.24784604     0.43680
C393        C  0.29516850  0.13082750  0.31990141    -0.05380
C394        C  0.28872944  0.11960103  0.25819575    -0.32810
C395        C  0.25802115  0.11929436  0.23483291     0.36440
C396        C  0.23291354  0.13070248  0.27285998    -0.05740
C397        C  0.23925740  0.14162362  0.33478379    -0.32710
C398        C  0.26982224  0.14209057  0.02493478     0.36350
H399        H  0.30756372  0.11069813  0.22781926     0.16720
O400        O  0.25283941  0.10732308  0.17509437    -0.60200
H401        H  0.22037351  0.15053798  0.36502249     0.16730
O402        O  0.27491614  0.15402021  0.08473281    -0.60300
H403        H  0.27841030  0.17685331  0.07868433     0.43730
H404        H  0.24936568  0.08449523  0.18123535     0.43680
C405        C  0.98552909  0.38897537  0.29086310    -0.05380
C406        C  0.99679773  0.40375273  0.23589972    -0.32810
C407        C  0.02887714  0.40501488  0.22222683     0.36440
C408        C  0.05057231  0.39098270  0.26357115    -0.05740
C409        C  0.03947708  0.37765830  0.32066341    -0.32710
C410        C  0.00704734  0.37667081  0.33456947     0.36350
H411        H  0.98050352  0.41400918  0.20261766     0.16720
O412        O  0.03880604  0.42058549  0.16870436    -0.60200
H413        H  0.05579541  0.36688574  0.35314856     0.16730
O414        O  0.99662627  0.36148996  0.05476883    -0.60300
H415        H  0.99144426  0.37841259  0.08589698     0.43730
H416        H  0.03645428  0.40531020  0.13320790     0.43680
C417        C  0.14083593  0.29373406  0.20672930    -0.05380
C418        C  0.15332895  0.27698096  0.15465822    -0.32810
C419        C  0.15532712  0.24414087  0.15579742     0.36440
C420        C  0.14384324  0.22733975  0.20915981    -0.05740
C421        C  0.13096330  0.24432823  0.26090762    -0.32710
C422        C  0.12945014  0.27717533  0.25999249     0.36350
H423        H  0.16242154  0.28944534  0.11362138     0.16720
O424        O  0.16868052  0.22886983  0.10442252    -0.60200
H425        H  0.12179186  0.23216972  0.30222186     0.16730
O426        O  0.11645203  0.29287448  0.31122989    -0.60300
H427        H  0.09410120  0.29627318  0.30008779     0.43730
H428        H  0.19144122  0.22757282  0.11397509     0.43680
C429        C  0.47653673  0.39399945  0.98889774    -0.05380
C430        C  0.48809894  0.38071724  0.26496165    -0.32810
C431        C  0.52065590  0.37948450  0.25227564     0.36440
C432        C  0.54183271  0.39139779  0.29746279    -0.05740
C433        C  0.53014385  0.40630975  0.01911919    -0.32710
C434        C  0.49793734  0.40790901  0.03152378     0.36350
H435        H  0.47205279  0.37004919  0.23147450     0.16720
O436        O  0.53150961  0.36441635  0.19838119    -0.60200
H437        H  0.54619446  0.41634163  0.05345767     0.16730
O438        O  0.48760396  0.42347566  0.08535097    -0.60300
H439        H  0.49038377  0.40842709  0.12058643     0.43730
H440        H  0.53631038  0.38139592  0.16777822     0.43680
C441        C  0.38751671  0.22690035  0.03815673    -0.05380
C442        C  0.39954010  0.24298480  0.09116279    -0.32810
C443        C  0.40029768  0.27589748  0.09348814     0.36440
C444        C  0.38864974  0.29349073  0.04224308    -0.05740
C445        C  0.37682145  0.27718190  0.98895149    -0.32710
C446        C  0.37643367  0.24425173  0.98647727     0.36350
H447        H  0.40862969  0.22991301  0.13095845     0.16720
O448        O  0.41298634  0.29046513  0.14564573    -0.60200
H449        H  0.36733770  0.28994668  0.94916811     0.16730
O450        O  0.36354036  0.22932625  0.93493354    -0.59980
H451        H  0.38086619  0.22769310  0.90310311     0.43730
H452        H  0.39560965  0.29166674  0.17744499     0.43680
C453        C  0.29543208  0.38631067  0.10514030    -0.05380
C454        C  0.27104200  0.39045315  0.06167016    -0.32810
C455        C  0.23957980  0.39106564  0.08191554     0.36440
C456        C  0.23177999  0.38761841  0.14713939    -0.05740
C457        C  0.25617266  0.38336334  0.19059558    -0.32710
C458        C  0.28765377  0.38279836  0.17033206     0.36350
H459        H  0.27631274  0.39356566  0.01158677     0.16720
O460        O  0.21678327  0.39571342  0.03735762    -0.60200
H461        H  0.25090306  0.38034207  0.24070067     0.16730
O462        O  0.31050380  0.37823013  0.21481310    -0.60300
H463        H  0.31488446  0.39944416  0.23254175     0.43730
H464        H  0.21209637  0.37447107  0.02012156     0.43680
C465        C  0.14394392  0.03786391  0.20656240    -0.05380
C466        C  0.12259682  0.01947766  0.24186178    -0.32810
C467        C  0.12089106  0.98678293  0.23157348     0.36440
C468        C  0.14071783  0.97237837  0.18570023    -0.05740
C469        C  0.16313788  0.99051706  0.15346494    -0.32710
C470        C  0.16516280  0.02277738  0.16407463     0.36350
H471        H  0.10628950  0.03059129  0.27510737     0.16720
O472        O  0.09883819  0.96949437  0.26405555    -0.60200
H473        H  0.17898613  0.97961138  0.11896720     0.16730
O474        O  0.18765717  0.03945292  0.13140888    -0.60300
H475        H  0.20578638  0.04081356  0.16053946     0.43730
H476        H  0.08000825  0.96939590  0.23666211     0.43680
C477        C  0.97658351  0.88114091  0.14788665    -0.05380
C478        C  0.99494780  0.85925218  0.18010344    -0.32810
C479        C  0.02739988  0.85801242  0.17069181     0.36440
C480        C  0.04237048  0.87951791  0.12951479    -0.05740
C481        C  0.02378040  0.90023498  0.09407508    -0.32710
C482        C  0.99094897  0.90117213  0.10319073     0.36350
H483        H  0.98408349  0.84339580  0.21395944     0.16720
O484        O  0.04435404  0.83611105  0.20344781    -0.60200
H485        H  0.03479777  0.91673500  0.06180006     0.16730
O486        O  0.97344315  0.92283868  0.07105236    -0.60300
H487        H  0.97279384  0.94172973  0.09904466     0.43730
H488        H  0.04714387  0.81816327  0.17345591     0.43680
C489        C  0.13293098  0.54746355  0.24436404    -0.05380
C490        C  0.14551523  0.53619844  0.18620180    -0.32810
C491        C  0.14741513  0.50369140  0.17364277     0.36440
C492        C  0.13698975  0.48220202  0.21992666    -0.05740
C493        C  0.12316783  0.49354443  0.27638982    -0.32710
C494        C  0.12081863  0.52567322  0.28862669     0.36350
H495        H  0.15488009  0.55250176  0.15150969     0.16720
O496        O  0.16145152  0.49325972  0.11827064    -0.60200
H497        H  0.11411363  0.47729789  0.31159023     0.16730
O498        O  0.10593502  0.53549956  0.34363544    -0.60300
H499        H  0.12219295  0.53467935  0.04363360     0.43730
H500        H  0.14388031  0.48728492  0.09008256     0.43680
C501        C  0.04038791  0.64083732  0.28831647    -0.05380
C502        C  0.02713097  0.65769339  0.23812916    -0.32810
C503        C  0.99500016  0.65634754  0.22628440     0.36440
C504        C  0.97507838  0.63825402  0.26538271    -0.05740
C505        C  0.98772818  0.62289874  0.31816113    -0.32710
C506        C  0.02027140  0.62383646  0.32949280     0.36350
H507        H  0.04183230  0.67160546  0.20670956     0.16720
O508        O  0.98313704  0.67332631  0.17675074    -0.60200
H509        H  0.97262704  0.60904942  0.34889603     0.16730
O510        O  0.03215373  0.60721561  0.04605462    -0.60300
H511        H  0.03698360  0.58602839  0.02837814     0.43730
H512        H  0.98836755  0.66092457  0.13785699     0.43680
C513        C  0.13539930  0.72932857  0.02173156    -0.05380
C514        C  0.14253960  0.75361486  0.97916145    -0.32810
C515        C  0.14357991  0.78497698  0.99988705     0.36440
C516        C  0.13714853  0.79269833  0.06435324    -0.05740
C517        C  0.12988756  0.76843217  0.10678158    -0.32710
C518        C  0.12875465  0.73714465  0.08611634     0.36350
H519        H  0.14775508  0.74831609  0.92963106     0.16720
O520        O  0.15103404  0.80778514  0.95652640    -0.60200
H521        H  0.12460882  0.77368542  0.15631267     0.16730
O522        O  0.12107074  0.71447862  0.12964393    -0.60300
H523        H  0.09779401  0.71298506  0.12875095     0.43730
H524        H  0.17428261  0.80959361  0.95761929     0.43680
C525        C  0.38884905  0.97218272  0.08051792    -0.05380
C526        C  0.37104867  0.99154838  0.12155180    -0.32810
C527        C  0.36865959  0.02380178  0.11146977     0.36440
C528        C  0.38449859  0.03774596  0.05941658    -0.05740
C529        C  0.40125107  0.01815065  0.01642448    -0.32710
C530        C  0.40335195  0.98551730  0.02652159     0.36350
H531        H  0.35895699  0.98163147  0.16240240     0.16720
O532        O  0.35031447  0.04136068  0.15263010    -0.60200
H533        H  0.41353314  0.02821449  0.97601407     0.16730
O534        O  0.42117743  0.96731945  0.98570352    -0.60300
H535        H  0.40691674  0.96167804  0.95044370     0.43730
H536        H  0.36326930  0.04448891  0.19108824     0.43680
C537        C  0.48823870  0.87898092  0.12684934    -0.05380
C538        C  0.50711105  0.89932621  0.16314334    -0.32810
C539        C  0.53982939  0.90051905  0.15255171     0.36440
C540        C  0.55382103  0.88114188  0.10541271    -0.05740
C541        C  0.53520124  0.85963175  0.07211580    -0.32710
C542        C  0.50287418  0.85812186  0.08298347     0.36350
H543        H  0.49637015  0.91533356  0.19742491     0.16720
O544        O  0.55756201  0.92177024  0.18592855    -0.60200
H545        H  0.54576172  0.84419561  0.03648025     0.16730
O546        O  0.48570393  0.83657075  0.04910124    -0.60300
H547        H  0.48344502  0.81820790  0.07753555     0.43730
H548        H  0.55814803  0.94091325  0.15933886     0.43680
C549        C  0.29862625  0.88264655  0.13227265    -0.05380
C550        C  0.28121866  0.88349981  0.18924519    -0.32810
C551        C  0.24827141  0.88357742  0.18911822     0.36440
C552        C  0.23190252  0.88304880  0.13112286    -0.05740
C553        C  0.24930480  0.88281638  0.07417616    -0.32710
C554        C  0.28221600  0.88240245  0.07429426     0.36350
H555        H  0.29324645  0.88395784  0.23403435     0.16720
O556        O  0.23235633  0.88433229  0.24610676    -0.60200
H557        H  0.23730593  0.88242700  0.02931561     0.16730
O558        O  0.29806718  0.88238395  0.01723652    -0.60300
H559        H  0.29969582  0.85990981  0.00458436     0.43730
H560        H  0.22846867  0.90694424  0.25511869     0.43680
C561        C  0.38391622  0.54861262  0.35239396    -0.05380
C562        C  0.36379412  0.52977101  0.98283306    -0.32810
C563        C  0.36174344  0.49751508  0.99299444     0.36440
C564        C  0.38075239  0.48312579  0.03905302    -0.05740
C565        C  0.39961985  0.50224908  0.07803369    -0.32710
C566        C  0.40111337  0.53491831  0.06852091     0.36350
H567        H  0.34986409  0.54010232  0.27886148     0.16720
O568        O  0.34158264  0.48018150  0.95624591    -0.60200
H569        H  0.41428373  0.49174322  0.11390137     0.16730
O570        O  0.42124154  0.55274412  0.10428664    -0.60300
H571        H  0.40880291  0.55922945  0.14239656     0.43730
H572        H  0.32203822  0.47829613  0.98218079     0.43680
C573        C  0.48555230  0.63218838  0.31290268    -0.05380
C574        C  0.50705184  0.63619763  0.26223500    -0.32810
C575        C  0.53970467  0.63527343  0.27278133     0.36440
C576        C  0.55115768  0.63026915  0.00140898    -0.05740
C577        C  0.52939780  0.62493987  0.05096546    -0.32710
C578        C  0.49717025  0.62570977  0.04058737     0.36350
H579        H  0.49858033  0.64097461  0.21489993     0.16720
O580        O  0.55999085  0.64049994  0.22280395    -0.60200
H581        H  0.53725666  0.62025003  0.09875377     0.16730
O582        O  0.47717347  0.62018285  0.09101531    -0.60300
H583        H  0.47330349  0.59719624  0.09007959     0.43730
H584        H  0.56505707  0.61931462  0.20542469     0.43680
C585        C  0.29669342  0.63912852  0.29203261    -0.05380
C586        C  0.28019368  0.63962356  0.35031854    -0.32810
C587        C  0.24730828  0.63868952  0.35285360     0.36440
C588        C  0.22999094  0.63773445  0.29636825    -0.05740
C589        C  0.24647090  0.63728291  0.23804959    -0.32710
C590        C  0.27940103  0.63787283  0.23551344     0.36350
H591        H  0.29293533  0.64043261  0.06091907     0.16720
O592        O  0.23239335  0.63944546  0.07752201    -0.60200
H593        H  0.23366123  0.63649745  0.19422310     0.16730
O594        O  0.29434298  0.63757701  0.17751349    -0.60300
H595        H  0.29881216  0.65997802  0.16832064     0.43730
H596        H  0.22958244  0.61704391  0.08900423     0.43680
C597        C  0.39477743  0.72802382  0.23437960    -0.05380
C598        C  0.39188399  0.75289654  0.27838579    -0.32810
C599        C  0.39178146  0.78422818  0.25856458     0.36440
C600        C  0.39431511  0.79149761  0.19313426    -0.05740
C601        C  0.39740645  0.76664706  0.14908739    -0.32710
C602        C  0.39756254  0.73527256  0.16896808     0.36350
H603        H  0.38946985  0.74811508  0.32869265     0.16720
O604        O  0.38851484  0.80744778  0.30385322    -0.60200
H605        H  0.39975342  0.77149629  0.09879655     0.16730
O606        O  0.40072508  0.71199868  0.12377877    -0.60300
H607        H  0.37900163  0.70751292  0.10963388     0.43730
H608        H  0.41015882  0.81163964  0.31882861     0.43680
O609        O  0.38826957  0.60385417  0.37546008    -0.74340
O610        O  0.39198428  0.68942022  0.65057911    -0.74370
O611        O  0.34548130  0.64775927  0.67660941    -0.74430
O612        O  0.43468371  0.64545515  0.68473828    -0.74470
O613        O  0.43819526  0.62804008  0.58461394    -0.74410
O614        O  0.34763495  0.63171977  0.57551561    -0.74380
O615        O  0.39539214  0.67229848  0.55044720    -0.74360
O616        O  0.39000362  0.58766447  0.60755233    -0.74430
Ni617      Ni  0.39007329  0.64732382  0.68364767     1.25410
Ni618      Ni  0.39296320  0.62939197  0.57587763     1.25360
C619        C  0.38788675  0.58170280  0.66700217     0.87840
C620        C  0.39414417  0.69498737  0.59071111     0.87770
C621        C  0.33163234  0.63970941  0.62534983     0.87800
C622        C  0.45119867  0.63554459  0.63742240     0.87970
O623        O  0.39342591  0.91683251  0.38851324    -0.74340
O624        O  0.39337954  0.83052489  0.44404758    -0.74370
O625        O  0.34870742  0.87382730  0.41646600    -0.74430
O626        O  0.43804734  0.87309892  0.41425462    -0.74470
O627        O  0.43914097  0.88967613  0.51503731    -0.74410
O628        O  0.34831945  0.88921966  0.51794766    -0.74380
O629        O  0.39416062  0.84702087  0.54471171    -0.74360
O630        O  0.39296290  0.93208398  0.49026603    -0.74430
Ni631      Ni  0.39342685  0.87299469  0.41224247     1.25410
Ni632      Ni  0.39369991  0.89008758  0.52057928     1.25360
C633        C  0.39235050  0.93867793  0.43104032     0.87840
C634        C  0.39391105  0.82458736  0.50387264     0.87770
C635        C  0.33356911  0.88185955  0.46694127     0.87800
C636        C  0.45346716  0.88073064  0.46384774     0.87970
O637        O  0.13539964  0.60261727  0.55183109    -0.74340
O638        O  0.13663301  0.68957985  0.60598592    -0.74370
O639        O  0.18084309  0.64519712  0.57905094    -0.74430
O640        O  0.09137101  0.64735624  0.57689954    -0.74470
O641        O  0.08876740  0.63216255  0.34461664    -0.74410
O642        O  0.17937121  0.63104282  0.34742122    -0.74380
O643        O  0.13421627  0.67423874  0.37353191    -0.74360
O644        O  0.13382748  0.58880608  0.65373766    -0.74430
Ni645      Ni  0.13612873  0.64673520  0.57480382     1.25410
Ni646      Ni  0.13402917  0.63103313  0.35004228     1.25360
C647        C  0.13405818  0.58133289  0.59472780     0.87840
C648        C  0.13537057  0.69614974  0.33244339     0.87770
C649        C  0.19504201  0.63793442  0.63014005     0.87800
C650        C  0.07517001  0.64008315  0.62633005     0.87970
O651        O  0.13603697  0.91729302  0.54095338    -0.74340
O652        O  0.13736467  0.83149089  0.48126155    -0.74370
O653        O  0.18151222  0.87469752  0.51258483    -0.74430
O654        O  0.09205346  0.87363757  0.51093638    -0.74470
O655        O  0.09193184  0.89072711  0.41103164    -0.74410
O656        O  0.18261318  0.89014190  0.41163049    -0.74380
O657        O  0.13727494  0.84812187  0.38113169    -0.74360
O658        O  0.13773687  0.93298888  0.43994100    -0.74430
Ni659      Ni  0.13667848  0.87370178  0.51499413     1.25410
Ni660      Ni  0.13736349  0.89111648  0.40736476     1.25360
C661        C  0.13753156  0.93922872  0.49957998     0.87840
C662        C  0.13738314  0.82569267  0.42118771     0.87770
C663        C  0.19698553  0.88264122  0.46272959     0.87800
C664        C  0.07713159  0.88146707  0.46105056     0.87970
O665        O  0.42135578  0.38952977  0.29838077    -0.74340
O666        O  0.33490416  0.38610841  0.35553651    -0.74370
O667        O  0.37583108  0.43235820  0.32591225    -0.74430
O668        O  0.37989060  0.34293610  0.32629678    -0.74470
O669        O  0.39523776  0.34401055  0.42711814    -0.74410
O670        O  0.39120968  0.43462183  0.42675516    -0.74380
O671        O  0.35072302  0.38765362  0.45600567    -0.74360
O672        O  0.43587139  0.39117806  0.39980112    -0.74430
Ni673      Ni  0.37744846  0.38765242  0.32293015     1.25410
Ni674      Ni  0.39383213  0.38935379  0.43096524     1.25360
C675        C  0.44288850  0.39148701  0.34050920     0.87840
C676        C  0.32860799  0.38655714  0.41547644     0.87770
C677        C  0.38257710  0.44836075  0.37570412     0.87800
C678        C  0.38804922  0.32850679  0.37661504     0.87970
O679        O  0.10571051  0.38787535  0.62035967    -0.74340
O680        O  0.19220521  0.38751507  0.56339243    -0.74370
O681        O  0.14891628  0.43234787  0.59490564    -0.74430
O682        O  0.14865005  0.34291333  0.59094812    -0.74470
O683        O  0.13401810  0.34341462  0.48939894    -0.74410
O684        O  0.13386135  0.43393653  0.49367621    -0.74380
O685        O  0.17651550  0.38872967  0.46285985    -0.74360
O686        O  0.09121739  0.38878704  0.51887255    -0.74430
Ni687      Ni  0.14955213  0.38761868  0.59593990     1.25410
Ni688      Ni  0.13338394  0.38869883  0.48760554     1.25360
C689        C  0.08418257  0.38905154  0.57822919     0.87840
C690        C  0.19858529  0.38803454  0.50347939     0.87770
C691        C  0.14058344  0.44789410  0.54608283     0.87800
C692        C  0.14108713  0.32837323  0.53994077     0.87970
O693        O  0.42097233  0.13463039  0.45498854    -0.74340
O694        O  0.33445204  0.13394208  0.40168013    -0.74370
O695        O  0.37708220  0.08955686  0.43373227    -0.74430
O696        O  0.37841468  0.17888728  0.42472383    -0.74470
O697        O  0.39241067  0.17591335  0.65555825    -0.74410
O698        O  0.39367605  0.08534695  0.33319708    -0.74380
O699        O  0.35040982  0.12911917  0.63408915    -0.74360
O700        O  0.43579071  0.13242959  0.35293251    -0.74430
Ni701      Ni  0.37710742  0.13429812  0.43234792     1.25410
Ni702      Ni  0.39362297  0.13053200  0.65699983     1.25360
C703        C  0.44261232  0.13473943  0.41189789     0.87840
C704        C  0.32821889  0.13132658  0.34219370     0.87770
C705        C  0.38515637  0.07254057  0.38575625     0.87800
C706        C  0.38586885  0.19221589  0.37241079     0.87970
O707        O  0.10868111  0.13333123  0.46578167    -0.74340
O708        O  0.19455331  0.13142990  0.52286641    -0.74370
O709        O  0.15109984  0.08774930  0.49315924    -0.74430
O710        O  0.15253209  0.17708399  0.49399702    -0.74470
O711        O  0.13606866  0.17786530  0.59492064    -0.74410
O712        O  0.13415652  0.08722947  0.59389052    -0.74380
O713        O  0.17748816  0.13166861  0.62350620    -0.74360
O714        O  0.09267998  0.13396060  0.56722005    -0.74430
Ni715      Ni  0.15231625  0.13233475  0.49039065     1.25410
Ni716      Ni  0.13449499  0.13263223  0.59847860     1.25360
C717        C  0.08657099  0.13487251  0.50782994     0.87840
C718        C  0.20010678  0.13121311  0.58280102     0.87770
C719        C  0.14293683  0.07262496  0.54297557     0.87800
C720        C  0.14432712  0.19241450  0.54408325     0.87970
O721        O  0.63695866  0.41717985  0.37136326    -0.74340
O722        O  0.63319875  0.33191461  0.64308578    -0.74370
O723        O  0.67983625  0.37222353  0.67466047    -0.74430
O724        O  0.59042456  0.37711925  0.67463516    -0.74470
O725        O  0.59115321  0.39380851  0.57425567    -0.74410
O726        O  0.68151111  0.38866109  0.57435139    -0.74380
O727        O  0.63442048  0.34894951  0.54323446    -0.74360
O728        O  0.63884711  0.43351816  0.60409817    -0.74430
Ni729      Ni  0.63500072  0.37390113  0.67774204     1.25410
Ni730      Ni  0.63646534  0.39180912  0.57038045     1.25360
C731        C  0.63895884  0.43933844  0.66394836     0.87840
C732        C  0.63362170  0.32634774  0.58291687     0.87770
C733        C  0.69556573  0.37990086  0.62489854     0.87800
C734        C  0.57608094  0.38686974  0.62544740     0.87970
O735        O  0.63641592  0.10218817  0.38368052    -0.74340
O736        O  0.63757115  0.18959267  0.43553458    -0.74370
O737        O  0.68197754  0.14490533  0.40977398    -0.74430
O738        O  0.59249993  0.14713583  0.40738689    -0.74470
O739        O  0.58983759  0.13265626  0.50884474    -0.74410
O740        O  0.68063833  0.13127173  0.51177785    -0.74380
O741        O  0.63531608  0.17481790  0.53677389    -0.74360
O742        O  0.63483033  0.08904137  0.48593243    -0.74430
Ni743      Ni  0.63723633  0.14649152  0.40547045     1.25410
Ni744      Ni  0.63517380  0.13146037  0.51441174     1.25360
C745        C  0.63487255  0.08117668  0.42713324     0.87840
C746        C  0.63596014  0.19650680  0.49516305     0.87770
C747        C  0.69626053  0.13755213  0.46069827     0.87800
C748        C  0.57624804  0.14024142  0.45696188     0.87970
O749        O  0.88953743  0.41692154  0.55715636    -0.74340
O750        O  0.89421312  0.33070020  0.61093787    -0.74370
O751        O  0.84711023  0.37154091  0.58499122    -0.74430
O752        O  0.93635972  0.37621075  0.58127172    -0.74470
O753        O  0.93682182  0.39109368  0.35001125    -0.74410
O754        O  0.84629373  0.38730586  0.35299260    -0.74380
O755        O  0.89317402  0.34666990  0.37897364    -0.74360
O756        O  0.88940497  0.43185016  0.65913064    -0.74430
Ni757      Ni  0.89184489  0.37318454  0.58004196     1.25410
Ni758      Ni  0.89147468  0.38975616  0.35558980     1.25360
C759        C  0.88847605  0.43859283  0.59996612     0.87840
C760        C  0.89407603  0.32460175  0.33734414     0.87770
C761        C  0.83179486  0.37902899  0.63566865     0.87800
C762        C  0.95129728  0.38489419  0.63077854     0.87970
O763        O  0.89337662  0.10263620  0.53449643    -0.74340
O764        O  0.89134930  0.18965531  0.48476036    -0.74370
O765        O  0.84758755  0.14501210  0.50987196    -0.74430
O766        O  0.93709648  0.14758691  0.51116869    -0.74470
O767        O  0.93954116  0.13232966  0.40957740    -0.74410
O768        O  0.84870127  0.13131941  0.40745700    -0.74380
O769        O  0.89411657  0.17470963  0.38289874    -0.74360
O770        O  0.89447001  0.08899777  0.43198495    -0.74430
Ni771      Ni  0.89229860  0.14676310  0.51369093     1.25410
Ni772      Ni  0.89420136  0.13134307  0.40435002     1.25360
C773        C  0.89430737  0.08140469  0.49071543     0.87840
C774        C  0.89279901  0.19637560  0.42535029     0.87770
C775        C  0.83315989  0.13763661  0.45890383     0.87800
C776        C  0.95323385  0.14029878  0.46135867     0.87970
O777        O  0.60668140  0.63137068  0.30739810    -0.74340
O778        O  0.69345204  0.63350016  0.35922533    -0.74370
O779        O  0.65167190  0.58783707  0.33089774    -0.74430
O780        O  0.64881474  0.67715971  0.33364351    -0.74470
O781        O  0.63522201  0.67670296  0.43646703    -0.74410
O782        O  0.63539755  0.58602002  0.43199925    -0.74380
O783        O  0.67781953  0.63113720  0.46062145    -0.74360
O784        O  0.59240502  0.63139866  0.40963145    -0.74430
Ni785      Ni  0.65070900  0.63250194  0.32915992     1.25410
Ni786      Ni  0.63462971  0.63132678  0.43827413     1.25360
C787        C  0.58513474  0.63106349  0.35074359     0.87840
C788        C  0.69983512  0.63227814  0.41876824     0.87770
C789        C  0.64419586  0.57209124  0.38035040     0.87800
C790        C  0.64177587  0.69174317  0.38527211     0.87970
O791        O  0.91994463  0.63464810  0.62420727    -0.74340
O792        O  0.83377464  0.63326035  0.56932975    -0.74370
O793        O  0.87633874  0.58942362  0.60271762    -0.74430
O794        O  0.87721050  0.67854015  0.59276471    -0.74470
O795        O  0.89227634  0.67554298  0.49084376    -0.74410
O796        O  0.89270928  0.58501246  0.50204920    -0.74380
O797        O  0.85020137  0.62930939  0.46845146    -0.74360
O798        O  0.93521394  0.63177494  0.52242805    -0.74430
Ni799      Ni  0.87620881  0.63403018  0.60081855     1.25410
Ni800      Ni  0.89321044  0.63020568  0.49235076     1.25360
C801        C  0.94174678  0.63443118  0.58146174     0.87840
C802        C  0.82789589  0.63112710  0.50962901     0.87770
C803        C  0.88402410  0.57233881  0.55466578     0.87800
C804        C  0.88497071  0.69183340  0.54061122     0.87970
O805        O  0.60895158  0.88600244  0.45975280    -0.74340
O806        O  0.69460420  0.89010020  0.39872572    -0.74370
O807        O  0.64937663  0.93263232  0.43107761    -0.74430
O808        O  0.65400724  0.84322624  0.42917182    -0.74470
O809        O  0.63761764  0.84218576  0.66236107    -0.74410
O810        O  0.63307950  0.93264790  0.33059257    -0.74380
O811        O  0.67775226  0.88949751  0.63229049    -0.74360
O812        O  0.59303470  0.88499434  0.35897521    -0.74430
Ni813      Ni  0.65243781  0.88804013  0.43316525     1.25410
Ni814      Ni  0.63483569  0.88734589  0.65911981     1.25360
C815        C  0.58693446  0.88446097  0.41870754     0.87840
C816        C  0.70030443  0.89040744  0.33857190     0.87770
C817        C  0.63995309  0.94737974  0.38208500     0.87800
C818        C  0.64605548  0.82775590  0.37947678     0.87970
O819        O  0.92143340  0.88500037  0.45962718    -0.74340
O820        O  0.83563569  0.88890506  0.52014286    -0.74370
O821        O  0.87999347  0.93145733  0.48591619    -0.74430
O822        O  0.87711173  0.84215851  0.49222444    -0.74470
O823        O  0.89305144  0.84368151  0.59265682    -0.74410
O824        O  0.89680727  0.93405416  0.58584802    -0.74380
O825        O  0.85244247  0.89129382  0.61985689    -0.74360
O826        O  0.93725520  0.88609570  0.56047902    -0.74430
Ni827      Ni  0.87786106  0.88685341  0.48597831     1.25410
Ni828      Ni  0.89541757  0.88888298  0.59331691     1.25360
C829        C  0.94341584  0.88449821  0.50083175     0.87840
C830        C  0.82989363  0.89065945  0.58020737     0.87770
C831        C  0.88963232  0.94748564  0.53356841     0.87800
C832        C  0.88497447  0.82797567  0.54304342     0.87970
C833        C  0.73332621  0.89151872  0.64773759    -0.05380
C834        C  0.75815767  0.89291036  0.35770246    -0.32810
C835        C  0.78954156  0.89285183  0.67006959     0.36440
C836        C  0.79683426  0.89160519  0.60424954    -0.05740
C837        C  0.77199297  0.89064629  0.56092250    -0.32710
C838        C  0.74060878  0.89073592  0.58188956     0.36350
H839        H  0.75329123  0.89379950  0.40832320     0.16720
O840        O  0.81278943  0.89413557  0.38133201    -0.60200
H841        H  0.77685808  0.88961191  0.51030953     0.16730
O842        O  0.71736404  0.88938238  0.53729590    -0.60300
H843        H  0.71343044  0.91154995  0.52542748     0.43730
H844        H  0.81643678  0.87198288  0.39366847     0.43680
C845        C  0.88575446  0.72649156  0.53939087    -0.05380
C846        C  0.89630836  0.74290788  0.59323179    -0.32810
C847        C  0.89611915  0.77577882  0.59549824     0.36440
C848        C  0.88504963  0.79301222  0.54322280    -0.05740
C849        C  0.87445140  0.77638395  0.48928639    -0.32710
C850        C  0.87502615  0.74347293  0.48690117     0.36350
H851        H  0.90508812  0.73012274  0.63366310     0.16720
O852        O  0.90738337  0.79064633  0.64866129    -0.60200
H853        H  0.86542679  0.78888220  0.44875360     0.16730
O854        O  0.86358099  0.72817756  0.43438382    -0.60300
H855        H  0.88198240  0.72548515  0.40545652     0.43730
H856        H  0.88882814  0.79336747  0.67718118     0.43680
C857        C  0.64570632  0.79280022  0.38119149    -0.05380
C858        C  0.63228140  0.77581207  0.33071697    -0.32810
C859        C  0.63029554  0.74299771  0.33229258     0.36440
C860        C  0.64174816  0.72642371  0.38496730    -0.05740
C861        C  0.65494361  0.74317588  0.43565859    -0.32710
C862        C  0.65740659  0.77599591  0.43379561     0.36350
H863        H  0.62294535  0.78795966  0.28997221     0.16720
O864        O  0.61678349  0.72734978  0.28225748    -0.60200
H865        H  0.66423231  0.73071040  0.47608154     0.16730
O866        O  0.67140836  0.79125269  0.48371898    -0.60300
H867        H  0.69404676  0.79236452  0.47192155     0.43730
H868        H  0.59445057  0.72440996  0.29507150     0.43680
C869        C  0.73284162  0.63184136  0.44075672    -0.05380
C870        C  0.73932847  0.62079523  0.50219735    -0.32810
C871        C  0.77007610  0.62018801  0.52510944     0.36440
C872        C  0.79509248  0.63110627  0.48688555    -0.05740
C873        C  0.78871097  0.64190148  0.42528012    -0.32710
C874        C  0.75793343  0.64257070  0.40236133     0.36350
H875        H  0.72051791  0.61217014  0.53258568     0.16720
O876        O  0.77542211  0.60826349  0.58441460    -0.60200
H877        H  0.80760994  0.65045047  0.39501714     0.16730
O878        O  0.75267150  0.65434087  0.34291108    -0.60300
H879        H  0.74915888  0.67719677  0.34955573     0.43730
H880        H  0.77964276  0.58555137  0.57735772     0.43680
C881        C  0.89522924  0.04743105  0.50602415    -0.05380
C882        C  0.90307403  0.02616106  0.45680134    -0.32810
C883        C  0.90198973  0.99385125  0.46619501     0.36440
C884        C  0.89311318  0.98180199  0.52592414    -0.05740
C885        C  0.88665926  0.00281877  0.57639136    -0.32710
C886        C  0.88750763  0.03550304  0.56675127     0.36350
H887        H  0.90986432  0.03449855  0.41004714     0.16720
O888        O  0.91046329  0.97418012  0.41676006    -0.60200
H889        H  0.87983360  0.99393899  0.62261139     0.16730
O890        O  0.88016445  0.05536714  0.61650579    -0.60300
H891        H  0.85701336  0.05811080  0.61497426     0.43730
H892        H  0.89114809  0.97154111  0.39132452     0.43680
C893        C  0.88539372  0.47204982  0.58271329    -0.05380
C894        C  0.86852375  0.49187591  0.62435721    -0.32810
C895        C  0.86677489  0.52410173  0.61393367     0.36440
C896        C  0.88286303  0.53761249  0.56163911    -0.05740
C897        C  0.89871814  0.51759344  0.51817218    -0.32710
C898        C  0.89985368  0.48493989  0.52818550     0.36350
H899        H  0.85663404  0.48232999  0.66581141     0.16720
O900        O  0.84957364  0.54215535  0.65617608    -0.60200
H901        H  0.91103116  0.52730420  0.47743912     0.16730
O902        O  0.91680120  0.46623287  0.48677836    -0.60300
H903        H  0.90206538  0.46097910  0.45208703     0.43730
H904        H  0.82830909  0.54365358  0.63752552     0.43680
C905        C  0.89425057  0.29177118  0.35950822    -0.05380
C906        C  0.87754750  0.28408520  0.41540272    -0.32810
C907        C  0.87699076  0.25317811  0.43787702     0.36440
C908        C  0.89343540  0.22942114  0.40439943    -0.05740
C909        C  0.91033224  0.23717264  0.34876079    -0.32710
C910        C  0.91085879  0.26806783  0.32626528     0.36350
H911        H  0.86431266  0.30201286  0.44114786     0.16720
O912        O  0.85860649  0.24600824  0.48989247    -0.60200
H913        H  0.92351879  0.21924865  0.32290443     0.16730
O914        O  0.92918581  0.27526472  0.27417756    -0.60300
H915        H  0.91889365  0.26507720  0.23736823     0.43730
H916        H  0.86904099  0.25594696  0.52680755     0.43680
C917        C  0.63314103  0.04718868  0.41101318    -0.05380
C918        C  0.64485575  0.03541215  0.35253730    -0.32810
C919        C  0.64611945  0.00281024  0.34063380     0.36440
C920        C  0.63589672  0.98171457  0.38784611    -0.05740
C921        C  0.62280029  0.99356390  0.44456603    -0.32710
C922        C  0.62112544  0.02579476  0.45623001     0.36350
H923        H  0.65410284  0.05137973  0.31708665     0.16720
O924        O  0.65946595  0.99188062  0.28496909    -0.60200
H925        H  0.61400129  0.97762641  0.48059539     0.16730
O926        O  0.60713008  0.03609921  0.51181176    -0.60300
H927        H  0.62385432  0.03524983  0.54418322     0.43730
H928        H  0.64152925  0.98577965  0.59117687     0.43680
C929        C  0.73124864  0.13648883  0.46000348    -0.05380
C930        C  0.74771072  0.13822821  0.51720129    -0.32810
C931        C  0.78066735  0.13803102  0.51763864     0.36440
C932        C  0.79810214  0.13659142  0.45998576    -0.05740
C933        C  0.78159562  0.13423521  0.40293475    -0.32710
C934        C  0.74863536  0.13400400  0.40249170     0.36350
H935        H  0.73493198  0.14014887  0.56175759     0.16720
O936        O  0.79551073  0.13911274  0.57497548    -0.60200
H937        H  0.79436867  0.13263461  0.35847018     0.16730
O938        O  0.73370457  0.13121806  0.34538942    -0.60300
H939        H  0.73125131  0.10827976  0.33820185     0.43730
H940        H  0.80085276  0.11691142  0.58420723     0.43680
C941        C  0.64242510  0.47224016  0.68483086    -0.05380
C942        C  0.66502137  0.49072484  0.32058584    -0.32810
C943        C  0.66706131  0.52286791  0.33306049     0.36440
C944        C  0.64564545  0.53740330  0.37592175    -0.05740
C945        C  0.62411193  0.51861465  0.40975900    -0.32710
C946        C  0.62252539  0.48607033  0.73129414     0.36350
H947        H  0.68092017  0.48021899  0.28568916     0.16720
O948        O  0.68963628  0.54001599  0.30166654    -0.60200
H949        H  0.60751584  0.52934203  0.44294548     0.16730
O950        O  0.59985273  0.46855435  0.76143685    -0.60300
H951        H  0.60965340  0.46148272  0.80140097     0.43730
H952        H  0.70740991  0.54158702  0.33164801     0.43680
C953        C  0.79691476  0.37862172  0.63414061    -0.05380
C954        C  0.78183496  0.37850439  0.57515391    -0.32810
C955        C  0.74902780  0.37882554  0.57119783     0.36440
C956        C  0.73041243  0.37904660  0.62693777    -0.05740
C957        C  0.74545644  0.37868209  0.68596551    -0.32710
C958        C  0.77831333  0.37872052  0.68990409     0.36350
H959        H  0.79567169  0.37837214  0.53186136     0.16720
O960        O  0.73547670  0.37870946  0.51253289    -0.60200
H961        H  0.73157673  0.37894035  0.72922730     0.16730
O962        O  0.79192997  0.37837751  0.41513786    -0.60300
H963        H  0.79371856  0.40083303  0.42769463     0.43730
H964        H  0.73129212  0.35624273  0.50287909     0.43680
C965        C  0.63352448  0.29337690  0.55903474    -0.05380
C966        C  0.62608831  0.26900709  0.60109937    -0.32810
C967        C  0.62632418  0.23764005  0.58076740     0.36440
C968        C  0.63460168  0.22980701  0.51711844    -0.05740
C969        C  0.64164656  0.25419763  0.47470847    -0.32710
C970        C  0.64132200  0.28566876  0.49512201     0.36350
H971        H  0.61984058  0.27420844  0.65021622     0.16720
O972        O  0.61838139  0.21489509  0.62394557    -0.60200
H973        H  0.64793645  0.24890004  0.42566044     0.16730
O974        O  0.64903012  0.30857435  0.45214764    -0.60300
H975        H  0.67218394  0.31094252  0.45497791     0.43730
H976        H  0.59524984  0.21249514  0.62059618     0.43680
C977        C  0.05336961  0.13876552  0.48932569    -0.05380
C978        C  0.04067978  0.12197290  0.43783936    -0.32810
C979        C  0.00817320  0.12309499  0.42584349     0.36440
C980        C  0.98805846  0.14120537  0.46576146    -0.05740
C981        C  0.00135352  0.15938081  0.51459186    -0.32710
C982        C  0.03351603  0.15840114  0.52626120     0.36350
H983        H  0.05569446  0.10693145  0.40870657     0.16720
O984        O  0.99617377  0.10485686  0.37785121    -0.60200
H985        H  0.98663497  0.17412338  0.54498173     0.16730
O986        O  0.04525632  0.17642513  0.57494549    -0.60300
H987        H  0.05331244  0.19576261  0.55438709     0.43730
H988        H  0.99828811  0.11776723  0.33899777     0.43680
C989        C  0.47607038  0.13845726  0.42876918    -0.05380
C990        C  0.48857900  0.12401822  0.48278957    -0.32810
C991        C  0.52109423  0.12516323  0.49455452     0.36440
C992        C  0.54142947  0.14107002  0.45202010    -0.05740
C993        C  0.52833851  0.15700181  0.40039542    -0.32710
C994        C  0.49620425  0.15570382  0.38849941     0.36350
H995        H  0.47335848  0.11082074  0.51446222     0.16720
O996        O  0.53281095  0.10916201  0.54542250    -0.60200
H997        H  0.54316299  0.17019544  0.36794088     0.16730
O998        O  0.48455505  0.17202264  0.33786057    -0.60300
H999        H  0.48921794  0.15874586  0.29989028     0.43730
H1000       H  0.53227734  0.12444466  0.58130090     0.43680
C1001       C  0.29516828  0.13082748  0.65323577    -0.05380
C1002       C  0.28872971  0.11960451  0.59152721    -0.32810
C1003       C  0.25802169  0.11929918  0.56816301     0.36440
C1004       C  0.23291354  0.13070362  0.60619313    -0.05740
C1005       C  0.23925686  0.14162147  0.66811952    -0.32710
C1006       C  0.26999076  0.14199041  0.35814218     0.36350
H1007       H  0.30756433  0.11070419  0.56114860     0.16720
O1008       O  0.25284100  0.10733445  0.50841870    -0.60200
H1009       H  0.22037259  0.15053348  0.69836008     0.16730
O1010       O  0.27511601  0.15391749  0.41793075    -0.60300
H1011       H  0.27855448  0.17675985  0.41189198     0.43730
H1012       H  0.24936549  0.08450612  0.51454964     0.43680
C1013       C  0.98552915  0.38897531  0.62419633    -0.05380
C1014       C  0.99679780  0.40375264  0.56923292    -0.32810
C1015       C  0.02887722  0.40501480  0.55556004     0.36440
C1016       C  0.05057241  0.39098266  0.59690437    -0.05740
C1017       C  0.03947716  0.37765828  0.65399666    -0.32710
C1018       C  0.00704741  0.37667079  0.66790272     0.36350
H1019       H  0.98050359  0.41400908  0.53595084     0.16720
O1020       O  0.03880611  0.42058540  0.50203754    -0.60200
H1021       H  0.05579550  0.36688575  0.68648184     0.16730
O1022       O  0.99662623  0.36148996  0.38810221    -0.60300
H1023       H  0.99144422  0.37841258  0.41923037     0.43730
H1024       H  0.03645437  0.40531009  0.46654111     0.43680
C1025       C  0.14083591  0.29373411  0.54006280    -0.05380
C1026       C  0.15332884  0.27698098  0.48799172    -0.32810
C1027       C  0.15532692  0.24414090  0.48913094     0.36440
C1028       C  0.14384305  0.22733980  0.54249338    -0.05740
C1029       C  0.13096317  0.24432831  0.59424121    -0.32710
C1030       C  0.12945009  0.27717541  0.59332602     0.36350
H1031       H  0.16242145  0.28944533  0.44695486     0.16720
O1032       O  0.16868031  0.22886986  0.43775609    -0.60200
H1033       H  0.12179175  0.23216982  0.63555548     0.16730
O1034       O  0.11645202  0.29287461  0.64456341    -0.60300
H1035       H  0.09410118  0.29627329  0.63342138     0.43730
H1036       H  0.19144115  0.22757378  0.44730778     0.43680
C1037       C  0.47653720  0.39400103  0.32223008    -0.05380
C1038       C  0.48809888  0.38071731  0.59829504    -0.32810
C1039       C  0.52065582  0.37948451  0.58560897     0.36440
C1040       C  0.54183267  0.39139763  0.63079617    -0.05740
C1041       C  0.53014440  0.40631010  0.35245267    -0.32710
C1042       C  0.49793791  0.40790986  0.36485691     0.36350
H1043       H  0.47205270  0.37004935  0.56480785     0.16720
O1044       O  0.53150948  0.36441642  0.53171441    -0.60200
H1045       H  0.54619509  0.41634172  0.38679133     0.16730
O1046       O  0.48760462  0.42347638  0.41868433    -0.60300
H1047       H  0.49038405  0.40842754  0.45391947     0.43730
H1048       H  0.53631039  0.38139604  0.50111163     0.43680
C1049       C  0.38744304  0.22690518  0.37147114    -0.05380
C1050       C  0.39947554  0.24298452  0.42447729    -0.32810
C1051       C  0.40025779  0.27589555  0.42679975     0.36440
C1052       C  0.38862024  0.29349521  0.37555689    -0.05740
C1053       C  0.37677896  0.27719388  0.32226708    -0.32710
C1054       C  0.37637113  0.24426357  0.31979050     0.36350
H1055       H  0.40856872  0.22990971  0.46426532     0.16720
O1056       O  0.41297226  0.29045458  0.47894096    -0.60200
H1057       H  0.36730631  0.28996502  0.28248109     0.16730
O1058       O  0.36348485  0.22934684  0.26822932    -0.59980
H1059       H  0.38081344  0.22772415  0.23640228     0.43730
H1060       H  0.39560756  0.29166386  0.51076565     0.43680
C1061       C  0.29543248  0.38631154  0.43847242    -0.05380
C1062       C  0.27104219  0.39045352  0.39500280    -0.32810
C1063       C  0.23958007  0.39106562  0.41524856     0.36440
C1064       C  0.23178040  0.38761831  0.48047247    -0.05740
C1065       C  0.25617326  0.38336317  0.52392828    -0.32710
C1066       C  0.28765439  0.38279855  0.50366432     0.36350
H1067       H  0.27631267  0.39356621  0.34491937     0.16720
O1068       O  0.21678346  0.39571335  0.37069084    -0.60200
H1069       H  0.25090379  0.38034171  0.57403338     0.16730
O1070       O  0.31050458  0.37823035  0.54814509    -0.60300
H1071       H  0.31488489  0.39944430  0.56587450     0.43730
H1072       H  0.21209662  0.37447100  0.35345476     0.43680
C1073       C  0.14394395  0.03786388  0.53989592    -0.05380
C1074       C  0.12259680  0.01947772  0.57519537    -0.32810
C1075       C  0.12089084  0.98678301  0.56490700     0.36440
C1076       C  0.14071734  0.97237838  0.51903346    -0.05740
C1077       C  0.16313756  0.99051691  0.48679821    -0.32710
C1078       C  0.16516272  0.02277724  0.49740806     0.36350
H1079       H  0.10628958  0.03059140  0.60844110     0.16720
O1080       O  0.09883796  0.96949453  0.59738923    -0.60200
H1081       H  0.17898566  0.97961114  0.45230032     0.16730
O1082       O  0.18765715  0.03945271  0.46474228    -0.60300
H1083       H  0.20578618  0.04081379  0.49387327     0.43730
H1084       H  0.08000806  0.96939593  0.56999570     0.43680
C1085       C  0.97658302  0.88114089  0.48122000    -0.05380
C1086       C  0.99494720  0.85925209  0.51343680    -0.32810
C1087       C  0.02739917  0.85801227  0.50402502     0.36440
C1088       C  0.04236956  0.87951777  0.46284787    -0.05740
C1089       C  0.02377967  0.90023491  0.42740824    -0.32710
C1090       C  0.99094837  0.90117212  0.43652402     0.36350
H1091       H  0.98408290  0.84339576  0.54729290     0.16720
O1092       O  0.04435344  0.83611098  0.53678110    -0.60200
H1093       H  0.03479708  0.91673494  0.39513328     0.16730
O1094       O  0.97344260  0.92283875  0.40438581    -0.60300
H1095       H  0.97279363  0.94172987  0.43237793     0.43730
H1096       H  0.04714362  0.81816332  0.50678904     0.43680
C1097       C  0.13293095  0.54746354  0.57769738    -0.05380
C1098       C  0.14551521  0.53619845  0.51953513    -0.32810
C1099       C  0.14741513  0.50369141  0.50697608     0.36440
C1100       C  0.13698979  0.48220202  0.55325996    -0.05740
C1101       C  0.12316785  0.49354441  0.60972313    -0.32710
C1102       C  0.12081862  0.52567320  0.62196002     0.36350
H1103       H  0.15488006  0.55250178  0.48484303     0.16720
O1104       O  0.16145153  0.49325976  0.45160394    -0.60200
H1105       H  0.11411366  0.47729785  0.64492352     0.16730
O1106       O  0.10593500  0.53549952  0.67696878    -0.60300
H1107       H  0.12219290  0.53467939  0.37696705     0.43730
H1108       H  0.14388033  0.48728494  0.42341587     0.43680
C1109       C  0.04038789  0.64083734  0.62164990    -0.05380
C1110       C  0.02713095  0.65769345  0.57146265    -0.32810
C1111       C  0.99500014  0.65634761  0.55961788     0.36440
C1112       C  0.97507836  0.63825406  0.59871614    -0.05740
C1113       C  0.98772816  0.62289874  0.65149452    -0.32710
C1114       C  0.02027139  0.62383645  0.66282619     0.36350
H1115       H  0.04183228  0.67160554  0.54004309     0.16720
O1116       O  0.98313702  0.67332641  0.51008428    -0.60200
H1117       H  0.97262703  0.60904939  0.68222937     0.16730
O1118       O  0.03215375  0.60721554  0.37938793    -0.60300
H1119       H  0.03698363  0.58602834  0.36171138     0.43730
H1120       H  0.98836752  0.66092470  0.47119049     0.43680
C1121       C  0.13539937  0.72932856  0.35506490    -0.05380
C1122       C  0.14253967  0.75361487  0.31249482    -0.32810
C1123       C  0.14357979  0.78497700  0.33322038     0.36440
C1124       C  0.13714809  0.79269838  0.39768644    -0.05740
C1125       C  0.12988740  0.76843216  0.44011485    -0.32710
C1126       C  0.12875469  0.73714463  0.41944968     0.36350
H1127       H  0.14775525  0.74831609  0.26296447     0.16720
O1128       O  0.15103396  0.80778518  0.28985979    -0.60200
H1129       H  0.12460857  0.77368539  0.48964591     0.16730
O1130       O  0.12107082  0.71447859  0.46297727    -0.60300
H1131       H  0.09779408  0.71298502  0.46208436     0.43730
H1132       H  0.17428253  0.80959368  0.29095282     0.43680
C1133       C  0.38895842  0.97215556  0.41372543    -0.05380
C1134       C  0.37116959  0.99155674  0.45469517    -0.32810
C1135       C  0.36889461  0.02381738  0.44465479     0.36440
C1136       C  0.38485341  0.03774279  0.39272397    -0.05740
C1137       C  0.40160754  0.01811568  0.34978750    -0.32710
C1138       C  0.40356570  0.98546375  0.35981204     0.36350
H1139       H  0.35899191  0.98165992  0.49546360     0.16720
O1140       O  0.35052112  0.04140081  0.48571821    -0.60200
H1141       H  0.41396270  0.02815899  0.30944553     0.16730
O1142       O  0.42132277  0.96720843  0.31897641    -0.60300
H1143       H  0.40703069  0.96160680  0.28374148     0.43730
H1144       H  0.36342581  0.04450186  0.52425371     0.43680
C1145       C  0.48823395  0.87898071  0.46017480    -0.05380
C1146       C  0.50710485  0.89932791  0.49646969    -0.32810
C1147       C  0.53982418  0.90052076  0.48588309     0.36440
C1148       C  0.55381769  0.88114322  0.43874633    -0.05740
C1149       C  0.53519890  0.85963287  0.40544833    -0.32710
C1150       C  0.50287190  0.85812194  0.41631262     0.36350
H1151       H  0.49636259  0.91533493  0.53075028     0.16720
O1152       O  0.55755616  0.92177094  0.51926420    -0.60200
H1153       H  0.54576042  0.84419629  0.36981496     0.16730
O1154       O  0.48570404  0.83656865  0.38243130    -0.60300
H1155       H  0.48344437  0.81820716  0.41086894     0.43730
H1156       H  0.55814607  0.94091346  0.49267339     0.43680
C1157       C  0.29862147  0.88263751  0.46560211    -0.05380
C1158       C  0.28121491  0.88349333  0.52257652    -0.32810
C1159       C  0.24826773  0.88357583  0.52245106     0.36440
C1160       C  0.23189885  0.88304885  0.46445589    -0.05740
C1161       C  0.24930028  0.88281632  0.40750852    -0.32710
C1162       C  0.28221104  0.88239842  0.40762527     0.36350
H1163       H  0.29324332  0.88394925  0.56736514     0.16720
O1164       O  0.23235278  0.88433310  0.57943995    -0.60200
H1165       H  0.23730101  0.88242979  0.36264851     0.16730
O1166       O  0.29806211  0.88238216  0.35056774    -0.60300
H1167       H  0.29968900  0.85990867  0.33791012     0.43730
H1168       H  0.22846694  0.90694551  0.58845028     0.43680
C1169       C  0.38391626  0.54861180  0.68572694    -0.05380
C1170       C  0.36379438  0.52977269  0.31616876    -0.32810
C1171       C  0.36174343  0.49751700  0.32633204     0.36440
C1172       C  0.38075230  0.48312824  0.37239195    -0.05740
C1173       C  0.39961997  0.50225166  0.41137114    -0.32710
C1174       C  0.40111372  0.53492066  0.40185632     0.36350
H1175       H  0.34986403  0.54010175  0.61219462     0.16720
O1176       O  0.34158301  0.48018305  0.28958309    -0.60200
H1177       H  0.41428406  0.49174603  0.44723874     0.16730
O1178       O  0.42124230  0.55274662  0.43762061    -0.60300
H1179       H  0.40880434  0.55923141  0.47573176     0.43730
H1180       H  0.32203855  0.47829723  0.31551765     0.43680
C1181       C  0.48555227  0.63218810  0.64623643    -0.05380
C1182       C  0.50705174  0.63619751  0.59556861    -0.32810
C1183       C  0.53970460  0.63527342  0.60611480     0.36440
C1184       C  0.55115767  0.63026916  0.33474222    -0.05740
C1185       C  0.52939770  0.62493992  0.38429860    -0.32710
C1186       C  0.49717014  0.62570997  0.37392034     0.36350
H1187       H  0.49858015  0.64097443  0.54823356     0.16720
O1188       O  0.55999074  0.64049995  0.55613735    -0.60200
H1189       H  0.53725651  0.62025004  0.43208694     0.16730
O1190       O  0.47717322  0.62018312  0.42434809    -0.60300
H1191       H  0.47330353  0.59719647  0.42341288     0.43730
H1192       H  0.56505698  0.61931463  0.53875810     0.43680
C1193       C  0.29669335  0.63912825  0.62536626    -0.05380
C1194       C  0.28019354  0.63962345  0.68365206    -0.32810
C1195       C  0.24730817  0.63868952  0.68618698     0.36440
C1196       C  0.22999088  0.63773447  0.62970157    -0.05740
C1197       C  0.24647089  0.63728297  0.57138295    -0.32710
C1198       C  0.27940103  0.63787280  0.56884694     0.36350
H1199       H  0.29293556  0.64043278  0.39425214     0.16720
O1200       O  0.23239349  0.63944540  0.41085534    -0.60200
H1201       H  0.23366125  0.63649759  0.52755642     0.16730
O1202       O  0.29434304  0.63757698  0.51084703    -0.60300
H1203       H  0.29881220  0.65997800  0.50165419     0.43730
H1204       H  0.22958254  0.61704385  0.42233751     0.43680
C1205       C  0.39477800  0.72802132  0.56772548    -0.05380
C1206       C  0.39188487  0.75289242  0.61173646    -0.32810
C1207       C  0.39178273  0.78422451  0.59192023     0.36440
C1208       C  0.39431601  0.79149449  0.52649237    -0.05740
C1209       C  0.39740817  0.76664570  0.48244096    -0.32710
C1210       C  0.39756360  0.73527136  0.50231555     0.36350
H1211       H  0.38947015  0.74810918  0.66204232     0.16720
O1212       O  0.38851565  0.80744369  0.63720937    -0.60200
H1213       H  0.39975483  0.77149575  0.43215005     0.16730
O1214       O  0.40072512  0.71199920  0.45712203    -0.60300
H1215       H  0.37900168  0.70751627  0.44297340     0.43730
H1216       H  0.41016024  0.81163976  0.65217640     0.43680
O1217       O  0.38826947  0.60385247  0.70879405    -0.74340
O1218       O  0.39198427  0.68941986  0.98391229    -0.74370
O1219       O  0.34548130  0.64775894  0.00994282    -0.74430
O1220       O  0.43468367  0.64545476  0.01807169    -0.74470
O1221       O  0.43819525  0.62803979  0.91794730    -0.74410
O1222       O  0.34763493  0.63171956  0.90884895    -0.74380
O1223       O  0.39539215  0.67229818  0.88378040    -0.74360
O1224       O  0.39000350  0.58766401  0.94088544    -0.74430
Ni1225     Ni  0.39007326  0.64732335  0.01698101     1.25410
Ni1226     Ni  0.39296317  0.62939165  0.90921094     1.25360
C1227       C  0.38788654  0.58170205  0.00033515     0.87840
C1228       C  0.39414416  0.69498707  0.92404427     0.87770
C1229       C  0.33163233  0.63970922  0.95868318     0.87800
C1230       C  0.45119865  0.63554433  0.97075575     0.87970
O1231       O  0.39342592  0.91683257  0.72184718    -0.74340
O1232       O  0.39337955  0.83052488  0.77738108    -0.74370
O1233       O  0.34870747  0.87382735  0.74979974    -0.74430
O1234       O  0.43804734  0.87309891  0.74758798    -0.74470
O1235       O  0.43914105  0.88967589  0.84837080    -0.74410
O1236       O  0.34831951  0.88921965  0.85128142    -0.74380
O1237       O  0.39416060  0.84702072  0.87804522    -0.74360
O1238       O  0.39296307  0.93208390  0.82360008    -0.74430
Ni1239     Ni  0.39342686  0.87299471  0.74557610     1.25410
Ni1240     Ni  0.39369999  0.89008746  0.85391298     1.25360
C1241       C  0.39235062  0.93867793  0.76437440     0.87840
C1242       C  0.39391105  0.82458726  0.83720606     0.87770
C1243       C  0.33356918  0.88185959  0.80027502     0.87800
C1244       C  0.45346720  0.88073051  0.79718110     0.87970
O1245       O  0.13539967  0.60261728  0.88516437    -0.74340
O1246       O  0.13663301  0.68957991  0.93931925    -0.74370
O1247       O  0.18084310  0.64519716  0.91238425    -0.74430
O1248       O  0.09137103  0.64735626  0.91023278    -0.74470
O1249       O  0.08876738  0.63216253  0.67795003    -0.74410
O1250       O  0.17937118  0.63104280  0.68075452    -0.74380
O1251       O  0.13421626  0.67423870  0.70686524    -0.74360
O1252       O  0.13382749  0.58880609  0.98707094    -0.74430
Ni1253     Ni  0.13612875  0.64673523  0.90813711     1.25410
Ni1254     Ni  0.13402914  0.63103310  0.68337563     1.25360
C1255       C  0.13405821  0.58133289  0.92806107     0.87840
C1256       C  0.13537056  0.69614967  0.66577670     0.87770
C1257       C  0.19504202  0.63793445  0.96347336     0.87800
C1258       C  0.07517002  0.64008316  0.95966327     0.87970
O1259       O  0.13603835  0.91729175  0.87428609    -0.74340
O1260       O  0.13736462  0.83149045  0.81459435    -0.74370
O1261       O  0.18151256  0.87469655  0.84591743    -0.74430
O1262       O  0.09205380  0.87363740  0.84426941    -0.74470
O1263       O  0.09193221  0.89072750  0.74436510    -0.74410
O1264       O  0.18261358  0.89014122  0.74496323    -0.74380
O1265       O  0.13727478  0.84812169  0.71446464    -0.74360
O1266       O  0.13773867  0.93298857  0.77327420    -0.74430
Ni1267     Ni  0.13667893  0.87370107  0.84832685     1.25410
Ni1268     Ni  0.13736402  0.89111628  0.74069773     1.25360
C1269       C  0.13753398  0.93922760  0.83291341     0.87840
C1270       C  0.13738299  0.82569243  0.75452055     0.87770
C1271       C  0.19698584  0.88264058  0.79606242     0.87800
C1272       C  0.07713190  0.88146722  0.79438383     0.87970
O1273       O  0.42135579  0.38952971  0.63171427    -0.74340
O1274       O  0.33490416  0.38610834  0.68886986    -0.74370
O1275       O  0.37583107  0.43235802  0.65924563    -0.74430
O1276       O  0.37989063  0.34293606  0.65963030    -0.74470
O1277       O  0.39523776  0.34401055  0.76045168    -0.74410
O1278       O  0.39120962  0.43462169  0.76008860    -0.74380
O1279       O  0.35072298  0.38765359  0.78933905    -0.74360
O1280       O  0.43587137  0.39117805  0.73313464    -0.74430
Ni1281     Ni  0.37744847  0.38765233  0.65626358     1.25410
Ni1282     Ni  0.39383210  0.38935374  0.76429872     1.25360
C1283       C  0.44288849  0.39148700  0.67384272     0.87840
C1284       C  0.32860798  0.38655712  0.74880978     0.87770
C1285       C  0.38257704  0.44836053  0.70903754     0.87800
C1286       C  0.38804924  0.32850678  0.70994859     0.87970
O1287       O  0.10571064  0.38787514  0.95369298    -0.74340
O1288       O  0.19220537  0.38751537  0.89672576    -0.74370
O1289       O  0.14891614  0.43234786  0.92823877    -0.74430
O1290       O  0.14865105  0.34291337  0.92428204    -0.74470
O1291       O  0.13401909  0.34341385  0.82273289    -0.74410
O1292       O  0.13386117  0.43393620  0.82700937    -0.74380
O1293       O  0.17651561  0.38872954  0.79619318    -0.74360
O1294       O  0.09121750  0.38878638  0.85220587    -0.74430
Ni1295     Ni  0.14955236  0.38761871  0.92927327     1.25410
Ni1296     Ni  0.13338415  0.38869833  0.82093895     1.25360
C1297       C  0.08418267  0.38905121  0.91156251     0.87840
C1298       C  0.19858539  0.38803463  0.83681270     0.87770
C1299       C  0.14058325  0.44789396  0.87941588     0.87800
C1300       C  0.14108882  0.32837279  0.87327487     0.87970
O1301       O  0.42097258  0.13463052  0.78832162    -0.74340
O1302       O  0.33445206  0.13394206  0.73501436    -0.74370
O1303       O  0.37708242  0.08955694  0.76706628    -0.74430
O1304       O  0.37841476  0.17888733  0.75805747    -0.74470
O1305       O  0.39249327  0.17589651  0.98898686    -0.74410
O1306       O  0.39367604  0.08534692  0.66653098    -0.74380
O1307       O  0.35023251  0.12936143  0.96751212    -0.74360
O1308       O  0.43579072  0.13242964  0.68626545    -0.74430
Ni1309     Ni  0.37710758  0.13429819  0.76568164     1.25410
Ni1310     Ni  0.39344564  0.13051204  0.99036485     1.25360
C1311       C  0.44261247  0.13473949  0.74523074     0.87840
C1312       C  0.32821875  0.13132651  0.67552802     0.87770
C1313       C  0.38515656  0.07254060  0.71909035     0.87800
C1314       C  0.38586883  0.19221593  0.70574440     0.87970
O1315       O  0.10864634  0.13333049  0.79906802    -0.74340
O1316       O  0.19448931  0.13143272  0.85622808    -0.74370
O1317       O  0.15106105  0.08774811  0.82647214    -0.74430
O1318       O  0.15249036  0.17708193  0.82731416    -0.74470
O1319       O  0.13600567  0.17786222  0.92822488    -0.74410
O1320       O  0.13409360  0.08722568  0.92718821    -0.74380
O1321       O  0.17739251  0.13166415  0.95685087    -0.74360
O1322       O  0.09262771  0.13395524  0.90049836    -0.74430
Ni1323     Ni  0.15227141  0.13233360  0.82370693     1.25410
Ni1324     Ni  0.13442423  0.13262784  0.93178248     1.25360
C1325       C  0.08653313  0.13487305  0.84110761     0.87840
C1326       C  0.20001695  0.13121875  0.91617072     0.87770
C1327       C  0.14289557  0.07262296  0.87628544     0.87800
C1328       C  0.14428443  0.19241196  0.87739956     0.87970
O1329       O  0.63695870  0.41717901  0.70469619    -0.74340
O1330       O  0.63319853  0.33191462  0.97641908    -0.74370
O1331       O  0.67983611  0.37222348  0.00799377    -0.74430
O1332       O  0.59042430  0.37711937  0.00796854    -0.74470
O1333       O  0.59115298  0.39380855  0.90758902    -0.74410
O1334       O  0.68151098  0.38866105  0.90768471    -0.74380
O1335       O  0.63442031  0.34894951  0.87656777    -0.74360
O1336       O  0.63884700  0.43351815  0.93743147    -0.74430
Ni1337     Ni  0.63500053  0.37390115  0.01107537     1.25410
Ni1338     Ni  0.63646517  0.39180912  0.90371378     1.25360
C1339       C  0.63895880  0.43933844  0.99728165     0.87840
C1340       C  0.63362155  0.32634774  0.91625016     0.87770
C1341       C  0.69556561  0.37990080  0.95823185     0.87800
C1342       C  0.57608065  0.38686981  0.95878074     0.87970
O1343       O  0.63641572  0.10218813  0.71701387    -0.74340
O1344       O  0.63757093  0.18959262  0.76886787    -0.74370
O1345       O  0.68197683  0.14490531  0.74310761    -0.74430
O1346       O  0.59249978  0.14713573  0.74072032    -0.74470
O1347       O  0.58983737  0.13265626  0.84217825    -0.74410
O1348       O  0.68063750  0.13127158  0.84511154    -0.74380
O1349       O  0.63531585  0.17481787  0.87010722    -0.74360
O1350       O  0.63483000  0.08904132  0.81926580    -0.74430
Ni1351     Ni  0.63723599  0.14649147  0.73880385     1.25410
Ni1352     Ni  0.63517338  0.13146032  0.84774522     1.25360
C1353       C  0.63487237  0.08117663  0.76046657     0.87840
C1354       C  0.63596004  0.19650677  0.82849633     0.87770
C1355       C  0.69625952  0.13755201  0.79403201     0.87800
C1356       C  0.57624792  0.14024139  0.79029534     0.87970
O1357       O  0.88953741  0.41692151  0.89048969    -0.74340
O1358       O  0.89421315  0.33070017  0.94427123    -0.74370
O1359       O  0.84711020  0.37154086  0.91832457    -0.74430
O1360       O  0.93635972  0.37621076  0.91460508    -0.74470
O1361       O  0.93682188  0.39109364  0.68334451    -0.74410
O1362       O  0.84629377  0.38730587  0.68632597    -0.74380
O1363       O  0.89317409  0.34666987  0.71230683    -0.74360
O1364       O  0.88940492  0.43185015  0.99246395    -0.74430
Ni1365     Ni  0.89184488  0.37318451  0.91337531     1.25410
Ni1366     Ni  0.89147473  0.38975614  0.68892309     1.25360
C1367       C  0.88847601  0.43859281  0.93329942     0.87840
C1368       C  0.89407614  0.32460171  0.67067736     0.87770
C1369       C  0.83179483  0.37902894  0.96900199     0.87800
C1370       C  0.95129728  0.38489423  0.96411189     0.87970
O1371       O  0.89337123  0.10263596  0.86782823    -0.74340
O1372       O  0.89134448  0.18965487  0.81809223    -0.74370
O1373       O  0.84758267  0.14501229  0.84320553    -0.74430
O1374       O  0.93708655  0.14758552  0.84449600    -0.74470
O1375       O  0.93952816  0.13232973  0.74290224    -0.74410
O1376       O  0.84869501  0.13131896  0.74079040    -0.74380
O1377       O  0.89410916  0.17470954  0.71622996    -0.74360
O1378       O  0.89446353  0.08899735  0.76531661    -0.74430
Ni1379     Ni  0.89229214  0.14676266  0.84702259     1.25410
Ni1380     Ni  0.89419275  0.13134273  0.73768036     1.25360
C1381       C  0.89430309  0.08140445  0.82404735     0.87840
C1382       C  0.89279469  0.19637537  0.75868224     0.87770
C1383       C  0.83315509  0.13763653  0.79223792     0.87800
C1384       C  0.95322021  0.14029882  0.79468167     0.87970
O1385       O  0.60668139  0.63137053  0.64073151    -0.74340
O1386       O  0.69345200  0.63349999  0.69255883    -0.74370
O1387       O  0.65167184  0.58783682  0.66423145    -0.74430
O1388       O  0.64881475  0.67715955  0.66697676    -0.74470
O1389       O  0.63522205  0.67670293  0.76980029    -0.74410
O1390       O  0.63539740  0.58601991  0.76533291    -0.74380
O1391       O  0.67781948  0.63113712  0.79395496    -0.74360
O1392       O  0.59240500  0.63139869  0.74296485    -0.74430
Ni1393     Ni  0.65070897  0.63250175  0.66249339     1.25410
Ni1394     Ni  0.63462966  0.63132674  0.77160758     1.25360
C1395       C  0.58513473  0.63106346  0.68407699     0.87840
C1396       C  0.69983507  0.63227803  0.75210176     0.87770
C1397       C  0.64419572  0.57209103  0.71368414     0.87800
C1398       C  0.64177591  0.69174308  0.71860531     0.87970
O1399       O  0.91994465  0.63464807  0.95754051    -0.74340
O1400       O  0.83377463  0.63326031  0.90266315    -0.74370
O1401       O  0.87633875  0.58942358  0.93605092    -0.74430
O1402       O  0.87721050  0.67854012  0.92609804    -0.74470
O1403       O  0.89227629  0.67554295  0.82417707    -0.74410
O1404       O  0.89270925  0.58501243  0.83538248    -0.74380
O1405       O  0.85020132  0.62930936  0.80178483    -0.74360
O1406       O  0.93521392  0.63177492  0.85576127    -0.74430
Ni1407     Ni  0.87620881  0.63403014  0.93415187     1.25410
Ni1408     Ni  0.89321040  0.63020566  0.82568405     1.25360
C1409       C  0.94174677  0.63443115  0.91479495     0.87840
C1410       C  0.82789585  0.63112706  0.84296242     0.87770
C1411       C  0.88402409  0.57233878  0.88799906     0.87800
C1412       C  0.88497068  0.69183337  0.87394453     0.87970
O1413       O  0.60895158  0.88600232  0.79308596    -0.74340
O1414       O  0.69460420  0.89010016  0.73205895    -0.74370
O1415       O  0.64937661  0.93263225  0.76441089    -0.74430
O1416       O  0.65400727  0.84322617  0.76250494    -0.74470
O1417       O  0.63761863  0.84218637  0.99569360    -0.74410
O1418       O  0.63307949  0.93264784  0.66392585    -0.74380
O1419       O  0.67775356  0.88949789  0.96562302    -0.74360
O1420       O  0.59303471  0.88499425  0.69230836    -0.74430
Ni1421     Ni  0.65243781  0.88804006  0.76649845     1.25410
Ni1422     Ni  0.63483735  0.88734678  0.99245221     1.25360
C1423       C  0.58693447  0.88446085  0.75204068     0.87840
C1424       C  0.70030443  0.89040742  0.67190514     0.87770
C1425       C  0.63995307  0.94737967  0.71541829     0.87800
C1426       C  0.64605553  0.82775583  0.71280988     0.87970
O1427       O  0.92143354  0.88500033  0.79296035    -0.74340
O1428       O  0.83563596  0.88890505  0.85347593    -0.74370
O1429       O  0.87999363  0.93145731  0.81924932    -0.74430
O1430       O  0.87711183  0.84215848  0.82555764    -0.74470
O1431       O  0.89305154  0.84368148  0.92599003    -0.74410
O1432       O  0.89680743  0.93405412  0.91918116    -0.74380
O1433       O  0.85244274  0.89129381  0.95318999    -0.74360
O1434       O  0.93725533  0.88609564  0.89381220    -0.74430
Ni1435     Ni  0.87786123  0.88685339  0.81931144     1.25410
Ni1436     Ni  0.89541774  0.88888295  0.92665007     1.25360
C1437       C  0.94341597  0.88449816  0.83416493     0.87840
C1438       C  0.82989396  0.89065944  0.91354041     0.87770
C1439       C  0.88963250  0.94748561  0.86690155     0.87800
C1440       C  0.88497453  0.82797564  0.87637666     0.87970
C1441       C  0.73332708  0.89151875  0.98107020    -0.05380
C1442       C  0.75815765  0.89291039  0.69103576    -0.32810
C1443       C  0.78954214  0.89285185  0.00340251     0.36440
C1444       C  0.79683474  0.89160518  0.93758246    -0.05740
C1445       C  0.77199355  0.89064623  0.89425524    -0.32710
C1446       C  0.74060945  0.89073587  0.91522222     0.36350
H1447       H  0.75329120  0.89379953  0.74165649     0.16720
O1448       O  0.81278940  0.89413562  0.71466533    -0.60200
H1449       H  0.77685865  0.88961181  0.84364228     0.16730
O1450       O  0.71736465  0.88938226  0.87062865    -0.60300
H1451       H  0.71343080  0.91154983  0.85876058     0.43730
H1452       H  0.81643677  0.87198294  0.72700179     0.43680
C1453       C  0.88575442  0.72649153  0.87272419    -0.05380
C1454       C  0.89630828  0.74290786  0.92656514    -0.32810
C1455       C  0.89611908  0.77577879  0.92883158     0.36440
C1456       C  0.88504962  0.79301219  0.87655609    -0.05740
C1457       C  0.87445141  0.77638392  0.82261966    -0.32710
C1458       C  0.87502615  0.74347290  0.82023446     0.36350
H1459       H  0.90508802  0.73012271  0.96699648     0.16720
O1460       O  0.90738327  0.79064631  0.98199467    -0.60200
H1461       H  0.86542684  0.78888217  0.78208684     0.16730
O1462       O  0.86358103  0.72817754  0.76771708    -0.60300
H1463       H  0.88198246  0.72548514  0.73878980     0.43730
H1464       H  0.88882801  0.79336746  0.01051448     0.43680
C1465       C  0.64570640  0.79280015  0.71452454    -0.05380
C1466       C  0.63228150  0.77581199  0.66405002    -0.32810
C1467       C  0.63029565  0.74299763  0.66562564     0.36440
C1468       C  0.64174825  0.72642364  0.71830038    -0.05740
C1469       C  0.65494371  0.74317582  0.76899165    -0.32710
C1470       C  0.65740668  0.77599585  0.76712865     0.36350
H1471       H  0.62294545  0.78795958  0.62330525     0.16720
O1472       O  0.61678360  0.72734969  0.61559054    -0.60200
H1473       H  0.66423241  0.73071035  0.80941462     0.16730
O1474       O  0.67140846  0.79125264  0.81705202    -0.60300
H1475       H  0.69404686  0.79236449  0.80525456     0.43730
H1476       H  0.59445068  0.72440990  0.62840453     0.43680
C1477       C  0.73284157  0.63184128  0.77409023    -0.05380
C1478       C  0.73932843  0.62079517  0.83553087    -0.32810
C1479       C  0.77007607  0.62018797  0.85844294     0.36440
C1480       C  0.79509244  0.63110622  0.82021900    -0.05740
C1481       C  0.78871092  0.64190140  0.75861356    -0.32710
C1482       C  0.75793337  0.64257061  0.73569480     0.36350
H1483       H  0.72051787  0.61217010  0.86591923     0.16720
O1484       O  0.77542210  0.60826348  0.91774812    -0.60200
H1485       H  0.80760988  0.65045038  0.72835055     0.16730
O1486       O  0.75267142  0.65434076  0.67624454    -0.60300
H1487       H  0.74915880  0.67719666  0.68288916     0.43730
H1488       H  0.77964274  0.58555135  0.91069127     0.43680
C1489       C  0.89522795  0.04743100  0.83935692    -0.05380
C1490       C  0.90307366  0.02616118  0.79013443    -0.32810
C1491       C  0.90198987  0.99385132  0.79952821     0.36440
C1492       C  0.89311337  0.98180196  0.85925734    -0.05740
C1493       C  0.88665951  0.00281867  0.90972467    -0.32710
C1494       C  0.88750733  0.03550291  0.90008448     0.36350
H1495       H  0.90986362  0.03449885  0.74338018     0.16720
O1496       O  0.91046342  0.97418024  0.75009318    -0.60200
H1497       H  0.87983411  0.99393883  0.95594482     0.16730
O1498       O  0.88016423  0.05536692  0.94983921    -0.60300
H1499       H  0.85701313  0.05811049  0.94830799     0.43730
H1500       H  0.89114818  0.97154120  0.72465772     0.43680
C1501       C  0.88539368  0.47204979  0.91604656    -0.05380
C1502       C  0.86852364  0.49187588  0.95769038    -0.32810
C1503       C  0.86677479  0.52410170  0.94726683     0.36440
C1504       C  0.88286301  0.53761246  0.89497236    -0.05740
C1505       C  0.89871817  0.51759341  0.85150552    -0.32710
C1506       C  0.89985371  0.48493987  0.86151884     0.36350
H1507       H  0.85663388  0.48232995  0.99914451     0.16720
O1508       O  0.84957348  0.54215532  0.98950913    -0.60200
H1509       H  0.91103125  0.52730418  0.81077253     0.16730
O1510       O  0.91680129  0.46623285  0.82011181    -0.60300
H1511       H  0.90206553  0.46097907  0.78542040     0.43730
H1512       H  0.82830896  0.54365356  0.97085842     0.43680
C1513       C  0.89425065  0.29177114  0.69284165    -0.05380
C1514       C  0.87754758  0.28408546  0.74873625    -0.32810
C1515       C  0.87699026  0.25317843  0.77121051     0.36440
C1516       C  0.89343399  0.22942105  0.73773259    -0.05740
C1517       C  0.91033156  0.23717226  0.68209452    -0.32710
C1518       C  0.91085873  0.26806755  0.65959900     0.36350
H1519       H  0.86431299  0.30201329  0.77448138     0.16720
O1520       O  0.85860590  0.24600893  0.82322602    -0.60200
H1521       H  0.92351765  0.21924791  0.65623823     0.16730
O1522       O  0.92918581  0.27526423  0.60751122    -0.60300
H1523       H  0.91889347  0.26507692  0.57070189     0.43730
H1524       H  0.86904093  0.25594700  0.86014117     0.43680
C1525       C  0.63314097  0.04718862  0.74434645    -0.05380
C1526       C  0.64485572  0.03541209  0.68587058    -0.32810
C1527       C  0.64611941  0.00281017  0.67396705     0.36440
C1528       C  0.63589671  0.98171450  0.72117940    -0.05740
C1529       C  0.62280031  0.99356383  0.77789933    -0.32710
C1530       C  0.62112538  0.02579469  0.78956323     0.36350
H1531       H  0.65410282  0.05137969  0.65041997     0.16720
O1532       O  0.65946599  0.99188055  0.61830238    -0.60200
H1533       H  0.61400136  0.97762634  0.81392877     0.16730
O1534       O  0.60712994  0.03609912  0.84514486    -0.60300
H1535       H  0.62385418  0.03524979  0.87751626     0.43730
H1536       H  0.64153300  0.98578059  0.92450864     0.43680
C1537       C  0.73124700  0.13648860  0.79333754    -0.05380
C1538       C  0.74770867  0.13822778  0.85053598    -0.32810
C1539       C  0.78066490  0.13803065  0.85097357     0.36440
C1540       C  0.79809885  0.13659129  0.79332037    -0.05740
C1541       C  0.78159309  0.13423529  0.73626887    -0.32710
C1542       C  0.74863339  0.13400398  0.73582547     0.36350
H1543       H  0.73493005  0.14014833  0.89509239     0.16720
O1544       O  0.79550866  0.13911284  0.90831032    -0.60200
H1545       H  0.79436603  0.13263511  0.69180413     0.16730
O1546       O  0.73370286  0.13121837  0.67872274    -0.60300
H1547       H  0.73125058  0.10828008  0.67153356     0.43730
H1548       H  0.80085084  0.11691166  0.91754313     0.43680
C1549       C  0.64242513  0.47224016  0.01816410    -0.05380
C1550       C  0.66502157  0.49072441  0.65392032    -0.32810
C1551       C  0.66706151  0.52286753  0.66639524     0.36440
C1552       C  0.64564526  0.53740300  0.70925559    -0.05740
C1553       C  0.62411134  0.51861436  0.74309180    -0.32710
C1554       C  0.62252560  0.48607031  0.06462769     0.36350
H1555       H  0.68092072  0.48021855  0.61902430     0.16720
O1556       O  0.68963688  0.54001559  0.63500242    -0.60200
H1557       H  0.60751494  0.52934178  0.77627759     0.16730
O1558       O  0.59985309  0.46855431  0.09477080    -0.60300
H1559       H  0.60965393  0.46148270  0.13473476     0.43730
H1560       H  0.70741009  0.54158672  0.66498489     0.43680
C1561       C  0.79691470  0.37862166  0.96747394    -0.05380
C1562       C  0.78183490  0.37850429  0.90848724    -0.32810
C1563       C  0.74902773  0.37882543  0.90453116     0.36440
C1564       C  0.73041234  0.37904653  0.96027109    -0.05740
C1565       C  0.74545636  0.37868205  0.01929883    -0.32710
C1566       C  0.77831326  0.37872049  0.02323741     0.36350
H1567       H  0.79567163  0.37837200  0.86519470     0.16720
O1568       O  0.73547663  0.37870932  0.84586622    -0.60200
H1569       H  0.73157665  0.37894033  0.06256063     0.16730
O1570       O  0.79192992  0.37837754  0.74847122    -0.60300
H1571       H  0.79371857  0.40083305  0.76102803     0.43730
H1572       H  0.73129211  0.35624258  0.83621241     0.43680
C1573       C  0.63352446  0.29337690  0.89236798    -0.05380
C1574       C  0.62608835  0.26900708  0.93443258    -0.32810
C1575       C  0.62632429  0.23764005  0.91410060     0.36440
C1576       C  0.63460174  0.22980700  0.85045165    -0.05740
C1577       C  0.64164659  0.25419763  0.80804167    -0.32710
C1578       C  0.64132201  0.28566877  0.82845525     0.36350
H1579       H  0.61984055  0.27420843  0.98354939     0.16720
O1580       O  0.61838149  0.21489509  0.95727870    -0.60200
H1581       H  0.64793643  0.24890005  0.75899360     0.16730
O1582       O  0.64903010  0.30857437  0.78548089    -0.60300
H1583       H  0.67218392  0.31094257  0.78831116     0.43730
H1584       H  0.59525000  0.21249490  0.95392869     0.43680
C1585       C  0.05334268  0.13877522  0.82260253    -0.05380
C1586       C  0.04065422  0.12197882  0.77112676    -0.32810
C1587       C  0.00814943  0.12309753  0.75914690     0.36440
C1588       C  0.98803967  0.14120813  0.79907296    -0.05740
C1589       C  0.00133419  0.15938651  0.84789756    -0.32710
C1590       C  0.03349510  0.15840969  0.85955190     0.36350
H1591       H  0.05566787  0.10693536  0.74199566     0.16720
O1592       O  0.99614683  0.10485464  0.71116600    -0.60200
H1593       H  0.98661697  0.17412683  0.87829478     0.16730
O1594       O  0.04523874  0.17642829  0.90824238    -0.60300
H1595       H  0.05330541  0.19576261  0.88768873     0.43730
H1596       H  0.99827020  0.11775620  0.67230235     0.43680
C1597       C  0.47607057  0.13845719  0.76210176    -0.05380
C1598       C  0.48857893  0.12401895  0.81612338    -0.32810
C1599       C  0.52109413  0.12516376  0.82788844     0.36440
C1600       C  0.54142949  0.14107007  0.78535350    -0.05740
C1601       C  0.52833883  0.15700115  0.73372773    -0.32710
C1602       C  0.49620473  0.15570268  0.72183061     0.36350
H1603       H  0.47335826  0.11082217  0.84779691     0.16720
O1604       O  0.53281068  0.10916237  0.87875642    -0.60200
H1605       H  0.54316347  0.17019413  0.70127238     0.16730
O1606       O  0.48455611  0.17201935  0.67118834    -0.60300
H1607       H  0.48922684  0.15874480  0.63321850     0.43730
H1608       H  0.53228515  0.12444740  0.91463076     0.43680
C1609       C  0.29501948  0.13097521  0.98670152    -0.05380
C1610       C  0.28861744  0.11972504  0.92499923    -0.32810
C1611       C  0.25792392  0.11936055  0.90161127     0.36440
C1612       C  0.23279882  0.13073828  0.93961107    -0.05740
C1613       C  0.23910030  0.14167163  0.00154567    -0.32710
C1614       C  0.26999003  0.14198746  0.69147888     0.36350
H1615       H  0.30747029  0.11084168  0.89464688     0.16720
O1616       O  0.25277495  0.10736638  0.84187751    -0.60200
H1617       H  0.22019357  0.15055694  0.03176138     0.16730
O1618       O  0.27511432  0.15390990  0.75127160    -0.60300
H1619       H  0.27855321  0.17675276  0.74523999     0.43730
H1620       H  0.24934901  0.08453209  0.84803350     0.43680
C1621       C  0.98552916  0.38897535  0.95752970    -0.05380
C1622       C  0.99679786  0.40375269  0.90256633    -0.32810
C1623       C  0.02887730  0.40501478  0.88889344     0.36440
C1624       C  0.05057248  0.39098254  0.93023772    -0.05740
C1625       C  0.03947718  0.37765824  0.98733004    -0.32710
C1626       C  0.00704741  0.37667079  0.00123609     0.36350
H1627       H  0.98050365  0.41400916  0.86928427     0.16720
O1628       O  0.03880622  0.42058540  0.83537099    -0.60200
H1629       H  0.05579548  0.36688566  0.01981522     0.16730
O1630       O  0.99662630  0.36148996  0.72143549    -0.60300
H1631       H  0.99144428  0.37841260  0.75256362     0.43730
H1632       H  0.03645441  0.40531013  0.79987451     0.43680
C1633       C  0.14083733  0.29373351  0.87339904    -0.05380
C1634       C  0.15333059  0.27697855  0.82133047    -0.32810
C1635       C  0.15532000  0.24413765  0.82246714     0.36440
C1636       C  0.14382355  0.22733789  0.87582170    -0.05740
C1637       C  0.13095207  0.24432899  0.92757345    -0.32710
C1638       C  0.12944858  0.27717636  0.92666173     0.36350
H1639       H  0.16242821  0.28944175  0.78029651     0.16720
O1640       O  0.16867497  0.22886456  0.77109619    -0.60200
H1641       H  0.12177617  0.23217219  0.96888573     0.16730
O1642       O  0.11645295  0.29287727  0.97789922    -0.60300
H1643       H  0.09410167  0.29627582  0.96676047     0.43730
H1644       H  0.19143537  0.22756770  0.78065210     0.43680
C1645       C  0.47653720  0.39400102  0.65556360    -0.05380
C1646       C  0.48809853  0.38071613  0.93162880    -0.32810
C1647       C  0.52065550  0.37948410  0.91894224     0.36440
C1648       C  0.54183227  0.39139752  0.96412932    -0.05740
C1649       C  0.53014445  0.40630991  0.68578617    -0.32710
C1650       C  0.49793795  0.40790975  0.69819047     0.36350
H1651       H  0.47205248  0.37004784  0.89814173     0.16720
O1652       O  0.53150933  0.36441633  0.86504744    -0.60200
H1653       H  0.54619519  0.41634140  0.72012487     0.16730
O1654       O  0.48760471  0.42347622  0.75201799    -0.60300
H1655       H  0.49038401  0.40842728  0.78725300     0.43730
H1656       H  0.53631034  0.38139613  0.83444512     0.43680
C1657       C  0.38744300  0.22690523  0.70480480    -0.05380
C1658       C  0.39947570  0.24298455  0.75781070    -0.32810
C1659       C  0.40025770  0.27589558  0.76013344     0.36440
C1660       C  0.38862026  0.29349523  0.70889046    -0.05740
C1661       C  0.37677908  0.27719391  0.65560055    -0.32710
C1662       C  0.37637086  0.24426363  0.65312445     0.36350
H1663       H  0.40856931  0.22990972  0.79759815     0.16720
O1664       O  0.41297176  0.29045462  0.81227504    -0.60200
H1665       H  0.36730673  0.28996502  0.61581420     0.16730
O1666       O  0.36348406  0.22934699  0.60156383    -0.59980
H1667       H  0.38081400  0.22771913  0.56974095     0.43730
H1668       H  0.39560707  0.29166300  0.84409981     0.43680
C1669       C  0.29543248  0.38631154  0.77180573    -0.05380
C1670       C  0.27104219  0.39045351  0.72833607    -0.32810
C1671       C  0.23958008  0.39106562  0.74858183     0.36440
C1672       C  0.23178044  0.38761836  0.81380575    -0.05740
C1673       C  0.25617328  0.38336320  0.85726157    -0.32710
C1674       C  0.28765439  0.38279857  0.83699764     0.36350
H1675       H  0.27631268  0.39356618  0.67825264     0.16720
O1676       O  0.21678346  0.39571334  0.70402411    -0.60200
H1677       H  0.25090380  0.38034174  0.90736668     0.16730
O1678       O  0.31050456  0.37823035  0.88147842    -0.60300
H1679       H  0.31488473  0.39944425  0.89920823     0.43730
H1680       H  0.21209661  0.37447098  0.68678806     0.43680
C1681       C  0.14392311  0.03786286  0.87321897    -0.05380
C1682       C  0.12258347  0.01947181  0.90852355    -0.32810
C1683       C  0.12088748  0.98677708  0.89824101     0.36440
C1684       C  0.14071771  0.97237659  0.85236962    -0.05740
C1685       C  0.16313633  0.99051912  0.82013823    -0.32710
C1686       C  0.16515194  0.02278081  0.83074366     0.36350
H1687       H  0.10627163  0.03058177  0.94176496     0.16720
O1688       O  0.09883760  0.96948456  0.93072206    -0.60200
H1689       H  0.17898868  0.97961586  0.78564500     0.16730
O1690       O  0.18764478  0.03946158  0.79808422    -0.60300
H1691       H  0.20577456  0.04082006  0.82721405     0.43730
H1692       H  0.08000554  0.96938893  0.90333457     0.43680
C1693       C  0.97658314  0.88114088  0.81455318    -0.05380
C1694       C  0.99494735  0.85925210  0.84676995    -0.32810
C1695       C  0.02739935  0.85801235  0.83735823     0.36440
C1696       C  0.04236978  0.87951790  0.79618118    -0.05740
C1697       C  0.02377981  0.90023499  0.76074151    -0.32710
C1698       C  0.99094849  0.90117213  0.76985725     0.36350
H1699       H  0.98408306  0.84339573  0.88062600     0.16720
O1700       O  0.04435359  0.83611102  0.87011426    -0.60200
H1701       H  0.03479718  0.91673504  0.72846655     0.16730
O1702       O  0.97344267  0.92283874  0.73771907    -0.60300
H1703       H  0.97279363  0.94172985  0.76571122     0.43730
H1704       H  0.04714367  0.81816334  0.84012223     0.43680
C1705       C  0.13293098  0.54746352  0.91103064    -0.05380
C1706       C  0.14551523  0.53619841  0.85286838    -0.32810
C1707       C  0.14741508  0.50369136  0.84030924     0.36440
C1708       C  0.13698961  0.48220194  0.88659298    -0.05740
C1709       C  0.12316778  0.49354436  0.94305626    -0.32710
C1710       C  0.12081863  0.52567317  0.95529325     0.36350
H1711       H  0.15488012  0.55250174  0.81817632     0.16720
O1712       O  0.16145152  0.49325972  0.78493715    -0.60200
H1713       H  0.11411359  0.47729782  0.97825668     0.16730
O1714       O  0.10593505  0.53549950  0.01030204    -0.60300
H1715       H  0.12219288  0.53467936  0.71030038     0.43730
H1716       H  0.14388034  0.48728485  0.75674906     0.43680
C1717       C  0.04038790  0.64083733  0.95498308    -0.05380
C1718       C  0.02713097  0.65769337  0.90479571    -0.32810
C1719       C  0.99500016  0.65634752  0.89295094     0.36440
C1720       C  0.97507837  0.63825402  0.93204930    -0.05740
C1721       C  0.98772817  0.62289878  0.98482777    -0.32710
C1722       C  0.02027139  0.62383649  0.99615945     0.36350
H1723       H  0.04183230  0.67160541  0.87337608     0.16720
O1724       O  0.98313705  0.67332626  0.84341723    -0.60200
H1725       H  0.97262702  0.60904948  0.01556270     0.16730
O1726       O  0.03215374  0.60721549  0.71272125    -0.60300
H1727       H  0.03698361  0.58602830  0.69504464     0.43730
H1728       H  0.98836755  0.66092449  0.80452352     0.43680
C1729       C  0.13539936  0.72932847  0.68839815    -0.05380
C1730       C  0.14253967  0.75361474  0.64582798    -0.32810
C1731       C  0.14357974  0.78497687  0.66655344     0.36440
C1732       C  0.13714795  0.79269822  0.73101939    -0.05740
C1733       C  0.12988733  0.76843206  0.77344796    -0.32710
C1734       C  0.12875467  0.73714454  0.75278291     0.36350
H1735       H  0.14775529  0.74831594  0.59629766     0.16720
O1736       O  0.15103395  0.80778506  0.62319289    -0.60200
H1737       H  0.12460850  0.77368531  0.82297901     0.16730
O1738       O  0.12107083  0.71447853  0.79631057    -0.60300
H1739       H  0.09779409  0.71298498  0.79541775     0.43730
H1740       H  0.17428251  0.80959362  0.62428616     0.43680
C1741       C  0.38895865  0.97215557  0.74705971    -0.05380
C1742       C  0.37117004  0.99155676  0.78802982    -0.32810
C1743       C  0.36889520  0.02381742  0.77798969     0.36440
C1744       C  0.38485376  0.03774281  0.72605845    -0.05740
C1745       C  0.40160782  0.01811569  0.68312188    -0.32710
C1746       C  0.40356595  0.98546375  0.69314632     0.36350
H1747       H  0.35899256  0.98165999  0.82879857     0.16720
O1748       O  0.35052221  0.04140091  0.81905391    -0.60200
H1749       H  0.41396295  0.02815901  0.64277985     0.16730
O1750       O  0.42132312  0.96720845  0.65231077    -0.60300
H1751       H  0.40703108  0.96160647  0.61707590     0.43730
H1752       H  0.36342606  0.04449918  0.85759147     0.43680
C1753       C  0.48823399  0.87898059  0.79350802    -0.05380
C1754       C  0.50710491  0.89932778  0.82980288    -0.32810
C1755       C  0.53982422  0.90052062  0.81921624     0.36440
C1756       C  0.55381771  0.88114309  0.77207946    -0.05740
C1757       C  0.53519891  0.85963276  0.73878144    -0.32710
C1758       C  0.50287190  0.85812184  0.74964578     0.36350
H1759       H  0.49636268  0.91533479  0.86408349     0.16720
O1760       O  0.55755622  0.92177080  0.85259733    -0.60200
H1761       H  0.54576041  0.84419620  0.70314803     0.16730
O1762       O  0.48570401  0.83656857  0.71576444    -0.60300
H1763       H  0.48344431  0.81820709  0.74420208     0.43730
H1764       H  0.55814617  0.94091331  0.82600648     0.43680
C1765       C  0.29862157  0.88263759  0.79893577    -0.05380
C1766       C  0.28121494  0.88349332  0.85591018    -0.32810
C1767       C  0.24826778  0.88357578  0.85578446     0.36440
C1768       C  0.23189905  0.88304864  0.79778909    -0.05740
C1769       C  0.24930052  0.88281627  0.74084181    -0.32710
C1770       C  0.28221123  0.88239850  0.74095877     0.36350
H1771       H  0.29324322  0.88394907  0.90069905     0.16720
O1772       O  0.23235270  0.88433300  0.91277327    -0.60200
H1773       H  0.23730136  0.88242967  0.69598164     0.16730
O1774       O  0.29806233  0.88238221  0.68390123    -0.60300
H1775       H  0.29969005  0.85990862  0.67124472     0.43730
H1776       H  0.22846719  0.90694543  0.92178408     0.43680
C1777       C  0.38391592  0.54861064  0.01905902    -0.05380
C1778       C  0.36379430  0.52977208  0.64950191    -0.32810
C1779       C  0.36174330  0.49751653  0.65966537     0.36440
C1780       C  0.38075218  0.48312788  0.70572539    -0.05740
C1781       C  0.39961986  0.50225123  0.74470467    -0.32710
C1782       C  0.40111365  0.53492012  0.73518964     0.36350
H1783       H  0.34986360  0.54010111  0.94552665     0.16720
O1784       O  0.34158290  0.48018260  0.62291639    -0.60200
H1785       H  0.41428391  0.49174564  0.78057237     0.16730
O1786       O  0.42124215  0.55274622  0.77095389    -0.60300
H1787       H  0.40880412  0.55923111  0.80906489     0.43730
H1788       H  0.32203835  0.47829699  0.64885075     0.43680
C1789       C  0.48555228  0.63218799  0.97956978    -0.05380
C1790       C  0.50705174  0.63619748  0.92890196    -0.32810
C1791       C  0.53970460  0.63527342  0.93944815     0.36440
C1792       C  0.55115766  0.63026916  0.66807565    -0.05740
C1793       C  0.52939777  0.62493991  0.71763212    -0.32710
C1794       C  0.49717023  0.62570984  0.70725402     0.36350
H1795       H  0.49858014  0.64097440  0.88156692     0.16720
O1796       O  0.55999074  0.64049997  0.88947070    -0.60200
H1797       H  0.53725662  0.62025006  0.76542044     0.16730
O1798       O  0.47717343  0.62018294  0.75768194    -0.60300
H1799       H  0.47330355  0.59719632  0.75674640     0.43730
H1800       H  0.56505701  0.61931466  0.87209145     0.43680
C1801       C  0.29669335  0.63912821  0.95869960    -0.05380
C1802       C  0.28019353  0.63962347  0.01698539    -0.32810
C1803       C  0.24730816  0.63868957  0.01952031     0.36440
C1804       C  0.22999088  0.63773450  0.96303490    -0.05740
C1805       C  0.24647090  0.63728298  0.90471628    -0.32710
C1806       C  0.27940103  0.63787277  0.90218028     0.36350
H1807       H  0.29293534  0.64043258  0.72758575     0.16720
O1808       O  0.23239335  0.63944538  0.74418869    -0.60200
H1809       H  0.23366126  0.63649758  0.86088974     0.16730
O1810       O  0.29434306  0.63757693  0.84418038    -0.60300
H1811       H  0.29881225  0.65997795  0.83498754     0.43730
H1812       H  0.22958247  0.61704384  0.75567089     0.43680
C1813       C  0.39477793  0.72802106  0.90105852    -0.05380
C1814       C  0.39188460  0.75289213  0.94506939    -0.32810
C1815       C  0.39178259  0.78422426  0.92525334     0.36440
C1816       C  0.39431601  0.79149433  0.85982561    -0.05740
C1817       C  0.39740830  0.76664558  0.81577420    -0.32710
C1818       C  0.39756367  0.73527119  0.83564866     0.36350
H1819       H  0.38946953  0.74810872  0.99537497     0.16720
O1820       O  0.38851572  0.80744339  0.97054256    -0.60200
H1821       H  0.39975522  0.77149577  0.76548349     0.16730
O1822       O  0.40072521  0.71199907  0.79045511    -0.60300
H1823       H  0.37900173  0.70751599  0.77630688     0.43730
H1824       H  0.41016053  0.81164003  0.98550768     0.43680
loop_ 
_geom_bond_atom_site_label_1 
_geom_bond_atom_site_label_2 
_geom_bond_distance 
_geom_bond_site_symmetry_2 
_ccdc_geom_bond_type 
O1        Ni1225   1.929       .  S
O1         C1227   1.283       .  A
O2           Ni9   1.928       .  S
O2           C12   1.285       .  A
O3           Ni9   1.903       .  S
O3           C13   1.279       .  A
O4           Ni9   1.898       .  S
O4           C14   1.278       .  A
O5          Ni10   1.935       .  S
O5           C14   1.284       .  A
O6          Ni10   1.929       .  S
O6           C13   1.285       .  A
O7          Ni10   1.909       .  S
O7           C12   1.279       .  A
O8          Ni10   1.905       .  S
O8           C11   1.279       .  A
Ni9         O609   1.929       .  S
Ni9         Ni10   2.386       .  S
C11         O609   1.283       .  A
C11         C561   1.474       .  S
C12         C597   1.490       .  S
C13         C585   1.485       .  S
C14         C573   1.481       .  S
O15         Ni23   1.935       .  S
O15          C25   1.284       .  A
O16         Ni23   1.932       .  S
O16          C26   1.285       .  A
O17         Ni23   1.902       .  S
O17          C27   1.278       .  A
O18         Ni23   1.898       .  S
O18          C28   1.278       .  A
O19         Ni24   1.934       .  S
O19          C28   1.284       .  A
O20         Ni24   1.931       .  S
O20          C27   1.285       .  A
O21         Ni24   1.905       .  S
O21          C26   1.278       .  A
O22         Ni24   1.902       .  S
O22          C25   1.279       .  A
Ni23        Ni24   2.385       .  S
C25         C525   1.480       .  S
C26         C600   1.490       .  S
C27         C549   1.487       .  S
C28         C537   1.481       .  S
O29         Ni37   1.934       .  S
O29          C39   1.284       .  A
O30         Ni37   1.931       .  S
O30         C648   1.286       .  A
O31         Ni37   1.905       .  S
O31          C41   1.278       .  A
O32         Ni37   1.903       .  S
O32          C42   1.280       .  A
O33         Ni38   1.929       .  S
O33        C1258   1.283   1_554  A
O34         Ni38   1.928       .  S
O34        C1257   1.285   1_554  A
O35         Ni38   1.899       .  S
O35          C40   1.277   1_554  A
O36        Ni646   1.896       .  S
O36          C39   1.278       .  A
Ni37       Ni646   2.384       .  S
Ni38       O1252   1.896   1_554  S
Ni38      Ni1253   2.384   1_554  S
C39         C489   1.482       .  S
C40        O1246   1.286       .  A
C40         C513   1.485   1_556  S
C41         O642   1.285       .  A
C41         C588   1.486       .  S
C42         O641   1.283       .  A
C42         C501   1.483       .  S
O43         Ni51   1.928       .  S
O43          C53   1.282       .  A
O44         Ni51   1.924       .  S
O44          C54   1.284       .  A
O45         Ni51   1.906       .  S
O45          C55   1.279       .  A
O46         Ni51   1.900       .  S
O46          C56   1.279       .  A
O47         Ni52   1.932       .  S
O47          C56   1.284       .  A
O48         Ni52   1.927       .  S
O48          C55   1.285       .  A
O49         Ni52   1.905       .  S
O49          C54   1.278       .  A
O50         Ni52   1.903       .  S
O50          C53   1.279       .  A
Ni51        Ni52   2.387       .  S
C53         C468   1.471       .  S
C54         C516   1.484       .  S
C55         C552   1.485       .  S
C56         C480   1.480       .  S
O57         Ni65   1.932       .  S
O57          C67   1.284   1_556  A
O58         Ni65   1.927   1_554  S
O58          C68   1.285       .  A
O59         Ni65   1.903       .  S
O59          C69   1.279   1_556  A
O60         Ni65   1.907       .  S
O60          C70   1.279   1_556  A
O61         Ni66   1.930       .  S
O61          C70   1.285       .  A
O62         Ni66   1.931       .  S
O62          C69   1.284       .  A
O63         Ni66   1.902       .  S
O63          C68   1.277       .  A
O64         Ni66   1.898       .  S
O64          C67   1.278       .  A
Ni65        Ni66   2.384   1_556  S
C67         C429   1.481   1_554  S
C68         C453   1.485       .  S
C69         C564   1.483       .  S
C70         C444   1.489       .  S
O71         Ni79   1.927       .  S
O71          C81   1.283       .  A
O72         Ni79   1.930       .  S
O72          C82   1.285       .  A
O73         Ni79   1.903       .  S
O73          C83   1.279       .  A
O74         Ni79   1.904       .  S
O74          C84   1.278       .  A
O75         Ni80   1.927       .  S
O75          C84   1.284       .  A
O76         Ni80   1.927       .  S
O76          C83   1.282       .  A
O77         Ni80   1.900       .  S
O77          C82   1.277       .  A
O78         Ni80   1.901       .  S
O78          C81   1.279       .  A
Ni79        Ni80   2.388       .  S
C81         C408   1.479       .  S
C82         C456   1.486       .  S
C83         C492   1.473       .  S
C84         C417   1.473       .  S
O85         Ni93   1.931       .  S
O85          C95   1.283       .  A
O86         Ni93   1.932       .  S
O86          C96   1.285       .  A
O87         Ni93   1.904       .  S
O87          C97   1.279       .  A
O88         Ni93   1.906       .  S
O88          C98   1.278       .  A
O89         Ni94   1.931       .  S
O89         C706   1.285       .  A
O90       Ni1310   1.934       .  S
O90          C97   1.284   1_556  A
O91         Ni94   1.906       .  S
O91         C704   1.279       .  A
O92       Ni1310   1.904   1_554  S
O92          C95   1.279       .  A
Ni93      Ni1310   2.386   1_554  S
Ni94        O698   1.934       .  S
Ni94        O700   1.904       .  S
Ni94       Ni701   2.386       .  S
C95         C381   1.479       .  S
C96        O1307   1.279   1_554  A
C96        C1609   1.486   1_554  S
C97         C528   1.488       .  S
C98        O1305   1.285   1_554  A
C98         C441   1.477       .  S
O99        Ni107   1.932       .  S
O99         C109   1.283       .  A
O100       Ni107   1.929       .  S
O100        C110   1.285       .  A
O101       Ni107   1.899       .  S
O101        C111   1.278       .  A
O102       Ni107   1.904       .  S
O102        C112   1.278       .  A
O103       Ni108   1.927       .  S
O103        C112   1.285       .  A
O104       Ni108   1.933       .  S
O104        C111   1.284       .  A
O105       Ni108   1.909       .  S
O105        C110   1.279       .  A
O106       Ni108   1.904       .  S
O106        C109   1.279       .  A
Ni107      Ni108   2.386       .  S
C109        C369   1.478       .  S
C110        C396   1.485       .  S
C111        C465   1.480       .  S
C112        C420   1.486       .  S
O113      Ni1337   1.923       .  S
O113       C1339   1.281   1_554  A
O114       Ni121   1.925       .  S
O114        C124   1.285       .  A
O115       Ni121   1.907       .  S
O115        C125   1.280       .  A
O116       Ni121   1.902       .  S
O116        C126   1.279       .  A
O117       Ni122   1.929       .  S
O117        C126   1.282       .  A
O118       Ni122   1.922       .  S
O118        C125   1.283       .  A
O119       Ni122   1.908       .  S
O119        C124   1.279       .  A
O120       Ni122   1.908       .  S
O120        C123   1.280       .  A
Ni121       O721   1.923       .  S
Ni121      Ni122   2.388       .  S
C123        O721   1.281       .  A
C123        C333   1.471       .  S
C124        C357   1.485       .  S
C125        C348   1.483       .  S
C126        C432   1.471       .  S
O127       Ni135   1.936       .  S
O127        C137   1.285       .  A
O128       Ni135   1.934       .  S
O128        C138   1.286       .  A
O129       Ni135   1.907       .  S
O129        C139   1.278       .  A
O130       Ni135   1.902       .  S
O130        C140   1.280       .  A
O131       Ni136   1.933       .  S
O131        C140   1.284       .  A
O132       Ni136   1.933       .  S
O132        C139   1.286       .  A
O133       Ni136   1.899       .  S
O133        C138   1.277       .  A
O134       Ni136   1.896       .  S
O134        C137   1.278       .  A
Ni135      Ni136   2.384       .  S
C137        C309   1.484       .  S
C138        C360   1.487       .  S
C139        C321   1.488       .  S
C140        C384   1.486       .  S
O141       Ni149   1.928       .  S
O141        C151   1.283       .  A
O142       Ni149   1.928       .  S
O142        C760   1.284       .  A
O143       Ni149   1.905       .  S
O143        C153   1.279       .  A
O144       Ni149   1.897       .  S
O144        C154   1.278       .  A
O145       Ni150   1.931       .  S
O145       C1370   1.283   1_554  A
O146       Ni150   1.925       .  S
O146       C1369   1.284   1_554  A
O147       Ni150   1.903       .  S
O147        C152   1.278       .  A
O148       Ni758   1.904       .  S
O148        C151   1.280       .  A
Ni149      Ni758   2.389       .  S
Ni150      O1364   1.904   1_554  S
Ni150     Ni1365   2.389   1_554  S
C151        C285   1.478       .  S
C152       O1358   1.284   1_554  A
C152        C297   1.476       .  S
C153        O754   1.284       .  A
C153        C345   1.484       .  S
C154        O753   1.283       .  A
C154        C405   1.471       .  S
O155       Ni163   1.932       .  S
O155        C165   1.284       .  A
O156       Ni163   1.929       .  S
O156        C166   1.284       .  A
O157       Ni163   1.905       .  S
O157        C167   1.278       .  A
O158       Ni163   1.905       .  S
O158        C168   1.280       .  A
O159       Ni164   1.932       .  S
O159        C168   1.284       .  A
O160       Ni164   1.935       .  S
O160        C167   1.286       .  A
O161       Ni164   1.903       .  S
O161        C166   1.278       .  A
O162       Ni164   1.897       .  S
O162        C165   1.279       .  A
Ni163      Ni164   2.385       .  S
C165        C273   1.484       .  S
C166        C300   1.477       .  S
C167        C324   1.491       .  S
C168        C372   1.485       .  S
O169       Ni177   1.933       .  S
O169        C179   1.284   1_556  A
O170       Ni177   1.932   1_554  S
O170        C180   1.285       .  A
O171       Ni177   1.901       .  S
O171        C181   1.279   1_556  A
O172       Ni177   1.902   1_554  S
O172        C182   1.277       .  A
O173       Ni178   1.931       .  S
O173        C182   1.285       .  A
O174       Ni178   1.931       .  S
O174        C181   1.284       .  A
O175       Ni178   1.901       .  S
O175        C180   1.278       .  A
O176       Ni178   1.900       .  S
O176        C179   1.280       .  A
Ni177      Ni178   2.386   1_556  S
C179        C576   1.487       .  S
C180        C261   1.483       .  S
C181        C336   1.479       .  S
C182        C252   1.475       .  S
O183       Ni191   1.929       .  S
O183        C193   1.283       .  A
O184       Ni191   1.929       .  S
O184        C194   1.285       .  A
O185       Ni191   1.898       .  S
O185        C195   1.278       .  A
O186       Ni191   1.903       .  S
O186        C196   1.278       .  A
O187       Ni192   1.929       .  S
O187        C196   1.284       .  A
O188       Ni192   1.935       .  S
O188        C195   1.285       .  A
O189       Ni192   1.902       .  S
O189        C194   1.278       .  A
O190       Ni192   1.903       .  S
O190        C193   1.279       .  A
Ni191      Ni192   2.387       .  S
C193        C504   1.476       .  S
C194        C264   1.480       .  S
C195        C288   1.486       .  S
C196        C237   1.475       .  S
O197       Ni205   1.927       .  S
O197        C207   1.282       .  A
O198       Ni205   1.927       .  S
O198        C208   1.285       .  A
O199       Ni205   1.902       .  S
O199        C209   1.279       .  A
O200       Ni205   1.908       .  S
O200        C210   1.279       .  A
O201       Ni206   1.926       .  S
O201        C818   1.285       .  A
O202      Ni1422   1.930       .  S
O202        C209   1.283   1_556  A
O203       Ni206   1.905       .  S
O203        C816   1.278       .  A
O204      Ni1422   1.904   1_554  S
O204        C207   1.279       .  A
Ni205     Ni1422   2.387   1_554  S
Ni206       O810   1.930       .  S
Ni206       O812   1.904       .  S
Ni206      Ni813   2.387       .  S
C207        C540   1.472       .  S
C208       O1419   1.278   1_554  A
C208       C1441   1.488   1_554  S
C209        C312   1.474       .  S
C210       O1417   1.285   1_554  A
C210        C249   1.488       .  S
O211       Ni219   1.928       .  S
O211        C221   1.282       .  A
O212       Ni219   1.927       .  S
O212        C222   1.284       .  A
O213       Ni219   1.899       .  S
O213        C223   1.279       .  A
O214       Ni219   1.907       .  S
O214        C224   1.279       .  A
O215       Ni220   1.925       .  S
O215        C224   1.284       .  A
O216       Ni220   1.930       .  S
O216        C223   1.283       .  A
O217       Ni220   1.906       .  S
O217        C222   1.278       .  A
O218       Ni220   1.903       .  S
O218        C221   1.279       .  A
Ni219      Ni220   2.386       .  S
C221        C477   1.470       .  S
C222        C228   1.488       .  S
C223        C276   1.477       .  S
C224        C240   1.487       .  S
C225        C816   1.488       .  S
C225        C230   1.415       .  A
C225        C834   1.403       .  A
C226       C1441   1.403   1_554  A
C226       C1443   1.400       .  A
C226        H231   1.082       .  S
C227        C228   1.415       .  A
C227        C834   1.400       .  A
C227        O840   1.371       .  S
C228        C229   1.403       .  A
C229        C230   1.400       .  A
C229        H233   1.082       .  S
C230        O234   1.371       .  S
O232       C1443   1.371       .  S
O232        H236   0.992       .  S
O234        H235   0.992       .  S
C237        C238   1.403       .  A
C237        C242   1.405       .  A
C238        C239   1.398       .  A
C238        H243   1.083       .  S
C239        C240   1.412       .  A
C239        O244   1.371       .  S
C240        C241   1.410       .  A
C241        C242   1.400       .  A
C241        H245   1.082       .  S
C242        O246   1.371       .  S
O244        H248   0.991       .  S
O246        H247   0.991       .  S
C249        C250   1.406   1_554  A
C249        C254   1.417       .  A
C250        C251   1.399       .  A
C250        H255   1.083       .  S
C251        C252   1.409   1_556  A
C251        O256   1.372       .  S
C252        C253   1.400       .  A
C253        C254   1.401       .  A
C253        H257   1.084       .  S
C254        O258   1.372       .  S
O256        H260   0.992       .  S
O258        H259   0.992       .  S
C261        C262   1.409       .  A
C261        C266   1.408       .  A
C262        C263   1.399       .  A
C262        H267   1.084       .  S
C263        C264   1.407       .  A
C263        O268   1.371       .  S
C264        C265   1.407       .  A
C265        C266   1.400       .  A
C265        H269   1.084       .  S
C266        O270   1.371       .  S
O268        H272   0.992       .  S
O270        H271   0.992       .  S
C273        C274   1.405       .  A
C273        C278   1.413       .  A
C274        C275   1.391   1_545  A
C274        H279   1.084       .  S
C275        C276   1.408       .  A
C275        O280   1.373       .  S
C276        C277   1.405   1_565  A
C277        C278   1.407       .  A
C277        H281   1.082   1_545  S
C278        O282   1.371       .  S
O280        H284   0.991       .  S
O282        H283   0.992       .  S
C285        C286   1.400       .  A
C285        C290   1.410       .  A
C286        C287   1.392       .  A
C286        H291   1.084       .  S
C287        C288   1.414       .  A
C287        O292   1.372       .  S
C288        C289   1.408       .  A
C289        C290   1.407       .  A
C289        H293   1.083       .  S
C290        O294   1.371       .  S
O292        H296   0.992       .  S
O294        H295   0.991       .  S
C297        C298   1.406       .  A
C297        C302   1.406   1_554  A
C298        C299   1.401       .  A
C298        H303   1.084       .  S
C299        C300   1.406       .  A
C299        O304   1.373       .  S
C300        C301   1.407       .  A
C301        C302   1.401   1_554  A
C301        H305   1.084   1_554  S
C302        O306   1.373       .  S
O304        H308   0.990       .  S
O306        H307   0.990       .  S
C309        C310   1.408       .  A
C309        C314   1.413       .  A
C310        C311   1.408       .  A
C310        H315   1.083   1_554  S
C311        C312   1.409   1_545  A
C311        O316   1.371   1_544  S
C312        C313   1.399       .  A
C313        C314   1.392   1_565  A
C313        H317   1.084       .  S
C314        O318   1.373       .  S
O316       H1536   0.991       .  S
O318        H319   0.991       .  S
H320        O924   0.991       .  S
C321        C322   1.400       .  A
C321        C326   1.412       .  A
C322        C323   1.401       .  A
C322        H327   1.079       .  S
C323        C324   1.414       .  A
C323        O328   1.368       .  S
C324        C325   1.400       .  A
C325        C326   1.401       .  A
C325        H329   1.077       .  S
C326        O330   1.369       .  S
O328        H332   0.992       .  S
O330        H331   0.992       .  S
C333        C338   1.408       .  A
C333        C942   1.399       .  A
C334        C335   1.393       .  A
C334       C1549   1.399   1_556  A
C334        H339   1.084       .  S
C335        C336   1.411   1_556  A
C335        O340   1.372       .  S
C336        C337   1.407       .  A
C337       C1554   1.406       .  A
C337        H341   1.083       .  S
C338        C945   1.406       .  A
C338        O342   1.371       .  S
O340        H344   0.992       .  S
O342        H343   0.991       .  S
C345        C346   1.403       .  A
C345        C350   1.406       .  A
C346        C347   1.398       .  A
C346        H351   1.077       .  S
C347        C348   1.406       .  A
C347        O352   1.368       .  S
C348        C349   1.403       .  A
C349        C350   1.400       .  A
C349        H353   1.078       .  S
C350        O962   1.367       .  S
O352        H356   0.992       .  S
O354       C1566   1.367       .  S
O354        H355   0.992       .  S
C357        C358   1.402       .  A
C357        C362   1.415       .  A
C358        C359   1.397       .  A
C358        H363   1.084       .  S
C359        C360   1.416       .  A
C359        O364   1.372       .  S
C360        C361   1.404       .  A
C361        C362   1.402       .  A
C361        H365   1.084       .  S
C362        O366   1.372       .  S
O364        H368   0.992       .  S
O366        H367   0.992       .  S
C369        C370   1.405       .  A
C369        C374   1.408       .  A
C370        C371   1.409       .  A
C370        H375   1.083       .  S
C371        C372   1.413   1_455  A
C371        O376   1.371   1_455  S
C372        C373   1.404   1_655  A
C373        C374   1.393       .  A
C373        H377   1.084   1_455  S
C374        O378   1.373       .  S
O376        H380   0.991       .  S
O378        H379   0.992       .  S
C381        C382   1.406       .  A
C381        C386   1.408       .  A
C382        C383   1.408       .  A
C382        H387   1.083       .  S
C383        C384   1.413       .  A
C383        O388   1.371       .  S
C384        C385   1.405       .  A
C385        C386   1.393       .  A
C385        H389   1.084       .  S
C386        O390   1.373       .  S
O388        H392   0.991       .  S
O390        H391   0.991   1_554  S
C393        C704   1.487       .  S
C393        C394   1.408       .  A
C393       C1006   1.410       .  A
C394        C395   1.400       .  A
C394        H399   1.084       .  S
C395        C396   1.409       .  A
C395        O400   1.371       .  S
C396        C397   1.408       .  A
C397       C1006   1.401       .  A
C397        H401   1.084       .  S
C398       C1609   1.410   1_554  A
C398       C1613   1.401       .  A
C398        O402   1.371       .  S
O400        H404   0.992       .  S
O402        H403   0.992       .  S
C405        C406   1.400       .  A
C405        C410   1.408   1_655  A
C406        C407   1.391   1_655  A
C406        H411   1.085       .  S
C407        C408   1.411       .  A
C407        O412   1.373       .  S
C408        C409   1.408       .  A
C409        C410   1.406       .  A
C409        H413   1.083       .  S
C410       O1022   1.371   1_455  S
O412        H416   0.991       .  S
O414       C1626   1.371   1_655  S
O414        H415   0.991       .  S
C417        C418   1.399       .  A
C417        C422   1.409       .  A
C418        C419   1.400       .  A
C418        H423   1.084       .  S
C419        C420   1.417       .  A
C419        O424   1.372       .  S
C420        C421   1.405       .  A
C421        C422   1.399       .  A
C421        H425   1.083       .  S
C422        O426   1.372       .  S
O424        H428   0.992       .  S
O426        H427   0.992       .  S
C429        C434   1.412   1_556  A
C429       C1646   1.408       .  A
C430        C431   1.407       .  A
C430       C1037   1.408       .  A
C430        H435   1.083       .  S
C431        C432   1.408       .  A
C431        O436   1.371       .  S
C432       C1041   1.399       .  A
C433        C434   1.392       .  A
C433       C1648   1.399   1_554  A
C433        H437   1.085       .  S
C434        O438   1.373       .  S
O436        H440   0.991       .  S
O438        H439   0.991       .  S
C441        C442   1.404       .  A
C441        C446   1.405   1_554  A
C442        C443   1.401       .  A
C442        H447   1.083       .  S
C443        C444   1.411       .  A
C443        O448   1.371       .  S
C444        C445   1.411   1_554  A
C445        C446   1.401       .  A
C445        H449   1.083       .  S
C446        O450   1.371       .  S
O448        H452   0.991       .  S
O450        H451   0.991       .  S
C453        C454   1.402       .  A
C453        C458   1.415       .  A
C454        C455   1.399       .  A
C454        H459   1.083       .  S
C455        C456   1.415       .  A
C455        O460   1.371       .  S
C456        C457   1.403       .  A
C457        C458   1.399       .  A
C457        H461   1.083       .  S
C458        O462   1.371       .  S
O460        H464   0.992       .  S
O462        H463   0.992       .  S
C465        C466   1.408       .  A
C465        C470   1.411       .  A
C466        C467   1.408   1_545  A
C466        H471   1.083       .  S
C467        C468   1.408       .  A
C467        O472   1.371       .  S
C468        C469   1.399       .  A
C469        C470   1.391   1_565  A
C469        H473   1.084       .  S
C470        O474   1.372       .  S
O472        H476   0.992       .  S
O474        H475   0.992       .  S
C477        C478   1.399       .  A
C477        C482   1.408       .  A
C478        C479   1.392   1_655  A
C478        H483   1.084       .  S
C479        C480   1.412       .  A
C479        O484   1.372       .  S
C480        C481   1.407       .  A
C481        C482   1.407   1_455  A
C481        H485   1.083       .  S
C482        O486   1.372       .  S
O484        H488   0.992       .  S
O486        H487   0.992       .  S
C489        C490   1.408       .  A
C489        C494   1.412       .  A
C490        C491   1.407       .  A
C490        H495   1.083       .  S
C491        C492   1.409       .  A
C491        O496   1.371       .  S
C492        C493   1.399       .  A
C493        C494   1.391       .  A
C493        H497   1.084       .  S
C494        O498   1.373       .  S
O496        H500   0.991       .  S
O498       H1107   0.991       .  S
H499       O1714   0.991       .  S
C501        C502   1.404       .  A
C501        C506   1.413       .  A
C502        C503   1.393   1_455  A
C502        H507   1.084       .  S
C503        C504   1.407       .  A
C503        O508   1.373       .  S
C504        C505   1.405       .  A
C505        C506   1.407   1_655  A
C505        H509   1.083       .  S
C506       O1118   1.371       .  S
O508        H512   0.992       .  S
O510       C1722   1.371   1_554  S
O510        H511   0.992       .  S
C513        C514   1.404   1_554  A
C513        C518   1.416       .  A
C514        C515   1.401       .  A
C514        H519   1.083       .  S
C515        C516   1.415   1_556  A
C515        O520   1.372       .  S
C516        C517   1.402       .  A
C517        C518   1.397       .  A
C517        H521   1.084       .  S
C518        O522   1.372       .  S
O520        H524   0.992       .  S
O522        H523   0.992       .  S
C525        C526   1.402       .  A
C525        C530   1.409       .  A
C526        C527   1.394   1_565  A
C526        H531   1.084       .  S
C527        C528   1.413       .  A
C527        O532   1.373       .  S
C528        C529   1.410       .  A
C529        C530   1.409   1_545  A
C529        H533   1.083   1_554  S
C530        O534   1.371   1_554  S
O532        H536   0.992       .  S
O534        H535   0.991       .  S
C537        C538   1.407       .  A
C537        C542   1.412       .  A
C538        C539   1.407       .  A
C538        H543   1.083       .  S
C539        C540   1.409       .  A
C539        O544   1.372       .  S
C540        C541   1.399       .  A
C541        C542   1.392       .  A
C541        H545   1.084       .  S
C542        O546   1.372       .  S
O544        H548   0.992       .  S
O546        H547   0.992       .  S
C549        C550   1.400       .  A
C549        C554   1.412       .  A
C550        C551   1.401       .  A
C550        H555   1.077       .  S
C551        C552   1.411       .  A
C551        O556   1.369       .  S
C552        C553   1.399       .  A
C553        C554   1.399       .  A
C553        H557   1.078       .  S
C554        O558   1.368       .  S
O556        H560   0.992       .  S
O558        H559   0.992       .  S
C561       C1170   1.400       .  A
C561       C1174   1.408       .  A
C562        C563   1.393       .  A
C562       C1777   1.400   1_556  A
C562       H1783   1.084       .  S
C563        C564   1.412   1_556  A
C563        O568   1.372       .  S
C564        C565   1.408       .  A
C565        C566   1.407       .  A
C565        H569   1.083       .  S
C566       C1777   1.408       .  A
C566        O570   1.371       .  S
H567       C1170   1.084       .  S
O568        H572   0.992       .  S
O570        H571   0.991       .  S
C573        C574   1.406       .  A
C573       C1186   1.409       .  A
C574        C575   1.409       .  A
C574        H579   1.083       .  S
C575       C1184   1.414       .  A
C575        O580   1.371       .  S
C576        C577   1.405       .  A
C576       C1791   1.414   1_554  A
C577        C578   1.390       .  A
C577        H581   1.083       .  S
C578       C1789   1.409   1_554  A
C578        O582   1.373       .  S
O580        H584   0.992       .  S
O582        H583   0.992       .  S
C585        C586   1.404       .  A
C585        C590   1.405       .  A
C586        C587   1.399       .  A
C586       H1199   1.077       .  S
C587        C588   1.405       .  A
C587       O1200   1.367       .  S
C588        C589   1.404       .  A
C589        C590   1.400       .  A
C589        H593   1.076       .  S
C590        O594   1.368       .  S
H591       C1802   1.077       .  S
O592       C1803   1.367       .  S
O592        H596   0.992       .  S
O594        H595   0.992       .  S
C597        C598   1.403       .  A
C597        C602   1.415       .  A
C598        C599   1.400       .  A
C598        H603   1.082       .  S
C599        C600   1.415       .  A
C599        O604   1.371       .  S
C600        C601   1.404       .  A
C601        C602   1.402       .  A
C601        H605   1.082       .  S
C602        O606   1.371       .  S
O604        H608   0.992       .  S
O606        H607   0.992       .  S
O610       Ni617   1.928       .  S
O610        C620   1.285       .  A
O611       Ni617   1.903       .  S
O611        C621   1.279       .  A
O612       Ni617   1.898       .  S
O612        C622   1.278       .  A
O613       Ni618   1.935       .  S
O613        C622   1.284       .  A
O614       Ni618   1.929       .  S
O614        C621   1.285       .  A
O615       Ni618   1.909       .  S
O615        C620   1.279       .  A
O616       Ni618   1.905       .  S
O616        C619   1.279       .  A
Ni617      O1217   1.929       .  S
Ni617      Ni618   2.386       .  S
C619       O1217   1.283       .  A
C619       C1169   1.474       .  S
C620       C1205   1.490       .  S
C621       C1193   1.485       .  S
C622       C1181   1.481       .  S
O623       Ni631   1.934       .  S
O623        C633   1.284       .  A
O624       Ni631   1.932       .  S
O624        C634   1.285       .  A
O625       Ni631   1.902       .  S
O625        C635   1.278       .  A
O626       Ni631   1.898       .  S
O626        C636   1.278       .  A
O627       Ni632   1.934       .  S
O627        C636   1.284       .  A
O628       Ni632   1.931       .  S
O628        C635   1.285       .  A
O629       Ni632   1.905       .  S
O629        C634   1.278       .  A
O630       Ni632   1.902       .  S
O630        C633   1.279       .  A
Ni631      Ni632   2.385       .  S
C633       C1133   1.480       .  S
C634       C1208   1.490       .  S
C635       C1157   1.487       .  S
C636       C1145   1.481       .  S
O637       Ni645   1.934       .  S
O637        C647   1.284       .  A
O638       Ni645   1.931       .  S
O638       C1256   1.286       .  A
O639       Ni645   1.905       .  S
O639        C649   1.278       .  A
O640       Ni645   1.903       .  S
O640        C650   1.280       .  A
O641       Ni646   1.929       .  S
O642       Ni646   1.928       .  S
O643       Ni646   1.899       .  S
O643        C648   1.277       .  A
O644      Ni1254   1.896       .  S
O644        C647   1.278       .  A
Ni645     Ni1254   2.384       .  S
C647       C1097   1.482       .  S
C648       C1121   1.485       .  S
C649       O1250   1.285       .  A
C649       C1196   1.486       .  S
C650       O1249   1.283       .  A
C650       C1109   1.483       .  S
O651       Ni659   1.928       .  S
O651        C661   1.282       .  A
O652       Ni659   1.924       .  S
O652        C662   1.284       .  A
O653       Ni659   1.906       .  S
O653        C663   1.279       .  A
O654       Ni659   1.900       .  S
O654        C664   1.279       .  A
O655       Ni660   1.932       .  S
O655        C664   1.284       .  A
O656       Ni660   1.927       .  S
O656        C663   1.285       .  A
O657       Ni660   1.905       .  S
O657        C662   1.278       .  A
O658       Ni660   1.903       .  S
O658        C661   1.279       .  A
Ni659      Ni660   2.387       .  S
C661       C1076   1.471       .  S
C662       C1124   1.484       .  S
C663       C1160   1.485       .  S
C664       C1088   1.480       .  S
O665       Ni673   1.932       .  S
O665        C675   1.284       .  A
O666       Ni673   1.927       .  S
O666        C676   1.285       .  A
O667       Ni673   1.903       .  S
O667        C677   1.279       .  A
O668       Ni673   1.907       .  S
O668        C678   1.279       .  A
O669       Ni674   1.930       .  S
O669        C678   1.285       .  A
O670       Ni674   1.931       .  S
O670        C677   1.284       .  A
O671       Ni674   1.902       .  S
O671        C676   1.277       .  A
O672       Ni674   1.898       .  S
O672        C675   1.278       .  A
Ni673      Ni674   2.384       .  S
C675       C1037   1.481       .  S
C676       C1061   1.485       .  S
C677       C1172   1.483       .  S
C678       C1052   1.489       .  S
O679       Ni687   1.927       .  S
O679        C689   1.283       .  A
O680       Ni687   1.930       .  S
O680        C690   1.285       .  A
O681       Ni687   1.903       .  S
O681        C691   1.279       .  A
O682       Ni687   1.904       .  S
O682        C692   1.278       .  A
O683       Ni688   1.927       .  S
O683        C692   1.284       .  A
O684       Ni688   1.927       .  S
O684        C691   1.282       .  A
O685       Ni688   1.900       .  S
O685        C690   1.277       .  A
O686       Ni688   1.901       .  S
O686        C689   1.279       .  A
Ni687      Ni688   2.388       .  S
C689       C1016   1.479       .  S
C690       C1064   1.486       .  S
C691       C1100   1.473       .  S
C692       C1025   1.473       .  S
O693       Ni701   1.930       .  S
O693        C703   1.283       .  A
O694       Ni701   1.932       .  S
O694        C704   1.285       .  A
O695       Ni701   1.903       .  S
O695        C705   1.279       .  A
O696       Ni701   1.906       .  S
O696        C706   1.278       .  A
O697       Ni702   1.931       .  S
O697       C1314   1.285       .  A
O698        C705   1.284       .  A
O699       Ni702   1.906       .  S
O699       C1312   1.279       .  A
O700        C703   1.279       .  A
Ni702      O1306   1.934       .  S
Ni702      O1308   1.904       .  S
Ni702     Ni1309   2.386       .  S
C703        C989   1.478       .  S
C705       C1136   1.489       .  S
C706       C1049   1.477       .  S
O707       Ni715   1.932       .  S
O707        C717   1.283       .  A
O708       Ni715   1.929       .  S
O708        C718   1.285       .  A
O709       Ni715   1.899       .  S
O709        C719   1.278       .  A
O710       Ni715   1.904       .  S
O710        C720   1.278       .  A
O711       Ni716   1.927       .  S
O711        C720   1.285       .  A
O712       Ni716   1.933       .  S
O712        C719   1.284       .  A
O713       Ni716   1.909       .  S
O713        C718   1.279       .  A
O714       Ni716   1.904       .  S
O714        C717   1.279       .  A
Ni715      Ni716   2.386       .  S
C717        C977   1.478       .  S
C718       C1004   1.485       .  S
C719       C1073   1.480       .  S
C720       C1028   1.486       .  S
O722       Ni729   1.925       .  S
O722        C732   1.285       .  A
O723       Ni729   1.907       .  S
O723        C733   1.280       .  A
O724       Ni729   1.902       .  S
O724        C734   1.279       .  A
O725       Ni730   1.929       .  S
O725        C734   1.282       .  A
O726       Ni730   1.922       .  S
O726        C733   1.283       .  A
O727       Ni730   1.908       .  S
O727        C732   1.279       .  A
O728       Ni730   1.908       .  S
O728        C731   1.280       .  A
Ni729      O1329   1.923       .  S
Ni729      Ni730   2.388       .  S
C731       O1329   1.281       .  A
C731        C941   1.471       .  S
C732        C965   1.485       .  S
C733        C956   1.483       .  S
C734       C1040   1.471       .  S
O735       Ni743   1.936       .  S
O735        C745   1.285       .  A
O736       Ni743   1.934       .  S
O736        C746   1.286       .  A
O737       Ni743   1.906       .  S
O737        C747   1.278       .  A
O738       Ni743   1.902       .  S
O738        C748   1.280       .  A
O739       Ni744   1.933       .  S
O739        C748   1.284       .  A
O740       Ni744   1.933       .  S
O740        C747   1.286       .  A
O741       Ni744   1.899       .  S
O741        C746   1.277       .  A
O742       Ni744   1.896       .  S
O742        C745   1.278       .  A
Ni743      Ni744   2.384       .  S
C745        C917   1.484       .  S
C746        C968   1.487       .  S
C747        C929   1.488       .  S
C748        C992   1.485       .  S
O749       Ni757   1.928       .  S
O749        C759   1.283       .  A
O750       Ni757   1.928       .  S
O750       C1368   1.284       .  A
O751       Ni757   1.905       .  S
O751        C761   1.279       .  A
O752       Ni757   1.897       .  S
O752        C762   1.278       .  A
O753       Ni758   1.931       .  S
O754       Ni758   1.925       .  S
O755       Ni758   1.903       .  S
O755        C760   1.278       .  A
O756      Ni1366   1.904       .  S
O756        C759   1.280       .  A
Ni757     Ni1366   2.389       .  S
C759        C893   1.478       .  S
C760        C905   1.476       .  S
C761       O1362   1.284       .  A
C761        C953   1.484       .  S
C762       O1361   1.283       .  A
C762       C1013   1.471       .  S
O763       Ni771   1.932       .  S
O763        C773   1.284       .  A
O764       Ni771   1.929       .  S
O764        C774   1.284       .  A
O765       Ni771   1.905       .  S
O765        C775   1.278       .  A
O766       Ni771   1.905       .  S
O766        C776   1.280       .  A
O767       Ni772   1.932       .  S
O767        C776   1.284       .  A
O768       Ni772   1.934       .  S
O768        C775   1.286       .  A
O769       Ni772   1.903       .  S
O769        C774   1.278       .  A
O770       Ni772   1.897       .  S
O770        C773   1.279       .  A
Ni771      Ni772   2.385       .  S
C773        C881   1.484       .  S
C774        C908   1.477       .  S
C775        C932   1.491       .  S
C776        C980   1.485       .  S
O777       Ni785   1.933       .  S
O777        C787   1.284       .  A
O778       Ni785   1.932       .  S
O778        C788   1.285       .  A
O779       Ni785   1.901       .  S
O779        C789   1.279       .  A
O780       Ni785   1.902       .  S
O780        C790   1.277       .  A
O781       Ni786   1.931       .  S
O781        C790   1.285       .  A
O782       Ni786   1.931       .  S
O782        C789   1.284       .  A
O783       Ni786   1.901       .  S
O783        C788   1.278       .  A
O784       Ni786   1.900       .  S
O784        C787   1.280       .  A
Ni785      Ni786   2.386       .  S
C787       C1184   1.487       .  S
C788        C869   1.483       .  S
C789        C944   1.479       .  S
C790        C860   1.475       .  S
O791       Ni799   1.929       .  S
O791        C801   1.283       .  A
O792       Ni799   1.929       .  S
O792        C802   1.285       .  A
O793       Ni799   1.898       .  S
O793        C803   1.278       .  A
O794       Ni799   1.903       .  S
O794        C804   1.278       .  A
O795       Ni800   1.929       .  S
O795        C804   1.284       .  A
O796       Ni800   1.935       .  S
O796        C803   1.285       .  A
O797       Ni800   1.902       .  S
O797        C802   1.278       .  A
O798       Ni800   1.903       .  S
O798        C801   1.279       .  A
Ni799      Ni800   2.387       .  S
C801       C1112   1.476       .  S
C802        C872   1.480       .  S
C803        C896   1.486       .  S
C804        C845   1.475       .  S
O805       Ni813   1.927       .  S
O805        C815   1.282       .  A
O806       Ni813   1.927       .  S
O806        C816   1.285       .  A
O807       Ni813   1.902       .  S
O807        C817   1.279       .  A
O808       Ni813   1.908       .  S
O808        C818   1.279       .  A
O809       Ni814   1.926       .  S
O809       C1426   1.285       .  A
O810        C817   1.283       .  A
O811       Ni814   1.905       .  S
O811       C1424   1.278       .  A
O812        C815   1.279       .  A
Ni814      O1418   1.930       .  S
Ni814      O1420   1.904       .  S
Ni814     Ni1421   2.387       .  S
C815       C1148   1.472       .  S
C817        C920   1.474       .  S
C818        C857   1.488       .  S
O819       Ni827   1.928       .  S
O819        C829   1.282       .  A
O820       Ni827   1.927       .  S
O820        C830   1.284       .  A
O821       Ni827   1.899       .  S
O821        C831   1.279       .  A
O822       Ni827   1.907       .  S
O822        C832   1.279       .  A
O823       Ni828   1.925       .  S
O823        C832   1.284       .  A
O824       Ni828   1.930       .  S
O824        C831   1.283       .  A
O825       Ni828   1.906       .  S
O825        C830   1.278       .  A
O826       Ni828   1.903       .  S
O826        C829   1.279       .  A
Ni827      Ni828   2.386       .  S
C829       C1085   1.470       .  S
C830        C836   1.488       .  S
C831        C884   1.477       .  S
C832        C848   1.487       .  S
C833       C1424   1.488       .  S
C833       C1442   1.403       .  A
C833        C838   1.415       .  A
C834        H839   1.082       .  S
C835       C1442   1.400       .  A
C835        C836   1.415       .  A
C835       O1448   1.371       .  S
C836        C837   1.403       .  A
C837        C838   1.400       .  A
C837        H841   1.082       .  S
C838        O842   1.371       .  S
O840        H844   0.992       .  S
O842        H843   0.992       .  S
C845        C846   1.403       .  A
C845        C850   1.405       .  A
C846        C847   1.398       .  A
C846        H851   1.083       .  S
C847        C848   1.412       .  A
C847        O852   1.371       .  S
C848        C849   1.410       .  A
C849        C850   1.400       .  A
C849        H853   1.082       .  S
C850        O854   1.371       .  S
O852        H856   0.991       .  S
O854        H855   0.991       .  S
C857        C858   1.406       .  A
C857        C862   1.417       .  A
C858        C859   1.399       .  A
C858        H863   1.083       .  S
C859        C860   1.409       .  A
C859        O864   1.372       .  S
C860        C861   1.400       .  A
C861        C862   1.401       .  A
C861        H865   1.084       .  S
C862        O866   1.372       .  S
O864        H868   0.992       .  S
O866        H867   0.992       .  S
C869        C870   1.409       .  A
C869        C874   1.408       .  A
C870        C871   1.399       .  A
C870        H875   1.084       .  S
C871        C872   1.407       .  A
C871        O876   1.371       .  S
C872        C873   1.407       .  A
C873        C874   1.400       .  A
C873        H877   1.084       .  S
C874        O878   1.371       .  S
O876        H880   0.992       .  S
O878        H879   0.992       .  S
C881        C882   1.405       .  A
C881        C886   1.413       .  A
C882        C883   1.391   1_545  A
C882        H887   1.084       .  S
C883        C884   1.408       .  A
C883        O888   1.373       .  S
C884        C885   1.405   1_565  A
C885        C886   1.407       .  A
C885        H889   1.082   1_545  S
C886        O890   1.371       .  S
O888        H892   0.991       .  S
O890        H891   0.992       .  S
C893        C894   1.400       .  A
C893        C898   1.410       .  A
C894        C895   1.392       .  A
C894        H899   1.084       .  S
C895        C896   1.414       .  A
C895        O900   1.372       .  S
C896        C897   1.408       .  A
C897        C898   1.407       .  A
C897        H901   1.083       .  S
C898        O902   1.371       .  S
O900        H904   0.992       .  S
O902        H903   0.991       .  S
C905        C906   1.406       .  A
C905        C910   1.406       .  A
C906        C907   1.401       .  A
C906        H911   1.084       .  S
C907        C908   1.406       .  A
C907        O912   1.373       .  S
C908        C909   1.407       .  A
C909        C910   1.401       .  A
C909        H913   1.084       .  S
C910        O914   1.373       .  S
O912        H916   0.990       .  S
O914        H915   0.990       .  S
C917        C918   1.408       .  A
C917        C922   1.413       .  A
C918        C919   1.408       .  A
C918        H923   1.083       .  S
C919        C920   1.409   1_545  A
C919        O924   1.371   1_545  S
C920        C921   1.399       .  A
C921        C922   1.392   1_565  A
C921        H925   1.084       .  S
C922        O926   1.373       .  S
O926        H927   0.991       .  S
H928       O1532   0.991       .  S
C929        C930   1.400       .  A
C929        C934   1.412       .  A
C930        C931   1.401       .  A
C930        H935   1.079       .  S
C931        C932   1.413       .  A
C931        O936   1.368       .  S
C932        C933   1.400       .  A
C933        C934   1.401       .  A
C933        H937   1.077       .  S
C934        O938   1.369       .  S
O936        H940   0.992       .  S
O938        H939   0.992       .  S
C941       C1550   1.399       .  A
C941        C946   1.408       .  A
C942        C943   1.393       .  A
C942        H947   1.084       .  S
C943        C944   1.411       .  A
C943        O948   1.372       .  S
C944        C945   1.407       .  A
C945        H949   1.083       .  S
C946       C1553   1.406       .  A
C946        O950   1.371       .  S
O948        H952   0.992       .  S
O950        H951   0.991       .  S
C953        C954   1.403       .  A
C953        C958   1.406       .  A
C954        C955   1.398       .  A
C954        H959   1.077       .  S
C955        C956   1.406       .  A
C955        O960   1.368       .  S
C956        C957   1.403       .  A
C957        C958   1.400       .  A
C957        H961   1.078       .  S
C958       O1570   1.367       .  S
O960        H964   0.992       .  S
O962        H963   0.992       .  S
C965        C966   1.402       .  A
C965        C970   1.415       .  A
C966        C967   1.397       .  A
C966        H971   1.084       .  S
C967        C968   1.416       .  A
C967        O972   1.372       .  S
C968        C969   1.404       .  A
C969        C970   1.402       .  A
C969        H973   1.084       .  S
C970        O974   1.372       .  S
O972        H976   0.992       .  S
O974        H975   0.992       .  S
C977        C978   1.405       .  A
C977        C982   1.408       .  A
C978        C979   1.409       .  A
C978        H983   1.083       .  S
C979        C980   1.413   1_455  A
C979        O984   1.371   1_455  S
C980        C981   1.404   1_655  A
C981        C982   1.393       .  A
C981        H985   1.084   1_455  S
C982        O986   1.373       .  S
O984        H988   0.991       .  S
O986        H987   0.992       .  S
C989        C990   1.406       .  A
C989        C994   1.408       .  A
C990        C991   1.408       .  A
C990        H995   1.083       .  S
C991        C992   1.413       .  A
C991        O996   1.371       .  S
C992        C993   1.405       .  A
C993        C994   1.393       .  A
C993        H997   1.084       .  S
C994        O998   1.373       .  S
O996       H1000   0.991       .  S
O998        H999   0.991       .  S
C1001      C1312   1.487       .  S
C1001      C1002   1.408       .  A
C1001      C1614   1.410       .  A
C1002      C1003   1.400       .  A
C1002      H1007   1.084       .  S
C1003      C1004   1.409       .  A
C1003      O1008   1.371       .  S
C1004      C1005   1.408       .  A
C1005      C1614   1.401       .  A
C1005      H1009   1.084       .  S
C1006      O1010   1.371       .  S
O1008      H1012   0.992       .  S
O1010      H1011   0.992       .  S
C1013      C1014   1.400       .  A
C1013      C1018   1.408   1_655  A
C1014      C1015   1.391   1_655  A
C1014      H1019   1.085       .  S
C1015      C1016   1.411       .  A
C1015      O1020   1.373       .  S
C1016      C1017   1.408       .  A
C1017      C1018   1.406       .  A
C1017      H1021   1.083       .  S
C1018      O1630   1.371   1_455  S
O1020      H1024   0.991       .  S
O1022      H1023   0.991       .  S
C1025      C1026   1.399       .  A
C1025      C1030   1.409       .  A
C1026      C1027   1.400       .  A
C1026      H1031   1.084       .  S
C1027      C1028   1.417       .  A
C1027      O1032   1.372       .  S
C1028      C1029   1.405       .  A
C1029      C1030   1.399       .  A
C1029      H1033   1.083       .  S
C1030      O1034   1.372       .  S
O1032      H1036   0.992       .  S
O1034      H1035   0.992       .  S
C1037      C1042   1.412       .  A
C1038      C1645   1.408       .  A
C1038      C1039   1.407       .  A
C1038      H1043   1.083       .  S
C1039      C1040   1.408       .  A
C1039      O1044   1.371       .  S
C1040      C1649   1.399       .  A
C1041      C1042   1.392       .  A
C1041      H1045   1.085       .  S
C1042      O1046   1.373       .  S
O1044      H1048   0.991       .  S
O1046      H1047   0.991       .  S
C1049      C1050   1.404       .  A
C1049      C1054   1.405       .  A
C1050      C1051   1.401       .  A
C1050      H1055   1.083       .  S
C1051      C1052   1.411       .  A
C1051      O1056   1.371       .  S
C1052      C1053   1.411       .  A
C1053      C1054   1.401       .  A
C1053      H1057   1.083       .  S
C1054      O1058   1.371       .  S
O1056      H1060   0.991       .  S
O1058      H1059   0.991       .  S
C1061      C1062   1.402       .  A
C1061      C1066   1.415       .  A
C1062      C1063   1.399       .  A
C1062      H1067   1.083       .  S
C1063      C1064   1.415       .  A
C1063      O1068   1.371       .  S
C1064      C1065   1.403       .  A
C1065      C1066   1.399       .  A
C1065      H1069   1.083       .  S
C1066      O1070   1.371       .  S
O1068      H1072   0.992       .  S
O1070      H1071   0.992       .  S
C1073      C1074   1.408       .  A
C1073      C1078   1.411       .  A
C1074      C1075   1.408   1_545  A
C1074      H1079   1.083       .  S
C1075      C1076   1.408       .  A
C1075      O1080   1.371       .  S
C1076      C1077   1.399       .  A
C1077      C1078   1.391   1_565  A
C1077      H1081   1.084       .  S
C1078      O1082   1.372       .  S
O1080      H1084   0.992       .  S
O1082      H1083   0.992       .  S
C1085      C1086   1.399       .  A
C1085      C1090   1.408       .  A
C1086      C1087   1.392   1_655  A
C1086      H1091   1.084       .  S
C1087      C1088   1.412       .  A
C1087      O1092   1.372       .  S
C1088      C1089   1.407       .  A
C1089      C1090   1.407   1_455  A
C1089      H1093   1.083       .  S
C1090      O1094   1.372       .  S
O1092      H1096   0.992       .  S
O1094      H1095   0.992       .  S
C1097      C1098   1.408       .  A
C1097      C1102   1.412       .  A
C1098      C1099   1.407       .  A
C1098      H1103   1.083       .  S
C1099      C1100   1.409       .  A
C1099      O1104   1.371       .  S
C1100      C1101   1.399       .  A
C1101      C1102   1.391       .  A
C1101      H1105   1.084       .  S
C1102      O1106   1.373       .  S
O1104      H1108   0.991       .  S
O1106      H1715   0.991       .  S
C1109      C1110   1.404       .  A
C1109      C1114   1.413       .  A
C1110      C1111   1.393   1_455  A
C1110      H1115   1.084       .  S
C1111      C1112   1.407       .  A
C1111      O1116   1.373       .  S
C1112      C1113   1.405       .  A
C1113      C1114   1.407   1_655  A
C1113      H1117   1.083       .  S
C1114      O1726   1.371       .  S
O1116      H1120   0.992       .  S
O1118      H1119   0.992       .  S
C1121      C1122   1.404       .  A
C1121      C1126   1.416       .  A
C1122      C1123   1.401       .  A
C1122      H1127   1.083       .  S
C1123      C1124   1.415       .  A
C1123      O1128   1.372       .  S
C1124      C1125   1.402       .  A
C1125      C1126   1.397       .  A
C1125      H1129   1.084       .  S
C1126      O1130   1.372       .  S
O1128      H1132   0.992       .  S
O1130      H1131   0.992       .  S
C1133      C1134   1.401       .  A
C1133      C1138   1.409       .  A
C1134      C1135   1.394   1_565  A
C1134      H1139   1.084       .  S
C1135      C1136   1.413       .  A
C1135      O1140   1.373       .  S
C1136      C1137   1.410       .  A
C1137      C1138   1.409   1_545  A
C1137      H1141   1.083       .  S
C1138      O1142   1.371       .  S
O1140      H1144   0.992       .  S
O1142      H1143   0.991       .  S
C1145      C1146   1.407       .  A
C1145      C1150   1.412       .  A
C1146      C1147   1.407       .  A
C1146      H1151   1.083       .  S
C1147      C1148   1.409       .  A
C1147      O1152   1.372       .  S
C1148      C1149   1.399       .  A
C1149      C1150   1.392       .  A
C1149      H1153   1.084       .  S
C1150      O1154   1.372       .  S
O1152      H1156   0.992       .  S
O1154      H1155   0.992       .  S
C1157      C1158   1.400       .  A
C1157      C1162   1.412       .  A
C1158      C1159   1.401       .  A
C1158      H1163   1.077       .  S
C1159      C1160   1.411       .  A
C1159      O1164   1.369       .  S
C1160      C1161   1.399       .  A
C1161      C1162   1.399       .  A
C1161      H1165   1.078       .  S
C1162      O1166   1.368       .  S
O1164      H1168   0.992       .  S
O1166      H1167   0.992       .  S
C1169      C1778   1.400       .  A
C1169      C1782   1.408       .  A
C1170      C1171   1.393       .  A
C1171      C1172   1.412       .  A
C1171      O1176   1.372       .  S
C1172      C1173   1.408       .  A
C1173      C1174   1.407       .  A
C1173      H1177   1.083       .  S
C1174      O1178   1.371       .  S
H1175      C1778   1.084       .  S
O1176      H1180   0.992       .  S
O1178      H1179   0.991       .  S
C1181      C1182   1.406       .  A
C1181      C1794   1.409       .  A
C1182      C1183   1.409       .  A
C1182      H1187   1.083       .  S
C1183      C1792   1.414       .  A
C1183      O1188   1.371       .  S
C1184      C1185   1.405       .  A
C1185      C1186   1.390       .  A
C1185      H1189   1.083       .  S
C1186      O1190   1.373       .  S
O1188      H1192   0.992       .  S
O1190      H1191   0.992       .  S
C1193      C1194   1.404       .  A
C1193      C1198   1.405       .  A
C1194      C1195   1.399       .  A
C1194      H1807   1.077       .  S
C1195      C1196   1.405       .  A
C1195      O1808   1.367       .  S
C1196      C1197   1.404       .  A
C1197      C1198   1.400       .  A
C1197      H1201   1.076       .  S
C1198      O1202   1.368       .  S
O1200      H1204   0.992       .  S
O1202      H1203   0.992       .  S
C1205      C1206   1.403       .  A
C1205      C1210   1.415       .  A
C1206      C1207   1.400       .  A
C1206      H1211   1.082       .  S
C1207      C1208   1.415       .  A
C1207      O1212   1.371       .  S
C1208      C1209   1.404       .  A
C1209      C1210   1.402       .  A
C1209      H1213   1.082       .  S
C1210      O1214   1.371       .  S
O1212      H1216   0.992       .  S
O1214      H1215   0.992       .  S
O1218     Ni1225   1.928   1_556  S
O1218      C1228   1.285       .  A
O1219     Ni1225   1.903       .  S
O1219      C1229   1.279   1_554  A
O1220     Ni1225   1.898       .  S
O1220      C1230   1.278   1_554  A
O1221     Ni1226   1.935       .  S
O1221      C1230   1.284       .  A
O1222     Ni1226   1.929       .  S
O1222      C1229   1.285       .  A
O1223     Ni1226   1.909       .  S
O1223      C1228   1.279       .  A
O1224     Ni1226   1.905       .  S
O1224      C1227   1.279   1_556  A
Ni1225    Ni1226   2.386   1_554  S
C1227      C1777   1.474       .  S
C1228      C1813   1.490       .  S
C1229      C1801   1.485       .  S
C1230      C1789   1.481       .  S
O1231     Ni1239   1.934       .  S
O1231      C1241   1.284       .  A
O1232     Ni1239   1.932       .  S
O1232      C1242   1.285       .  A
O1233     Ni1239   1.902       .  S
O1233      C1243   1.278       .  A
O1234     Ni1239   1.898       .  S
O1234      C1244   1.278       .  A
O1235     Ni1240   1.934       .  S
O1235      C1244   1.284       .  A
O1236     Ni1240   1.931       .  S
O1236      C1243   1.285       .  A
O1237     Ni1240   1.905       .  S
O1237      C1242   1.278       .  A
O1238     Ni1240   1.902       .  S
O1238      C1241   1.279       .  A
Ni1239    Ni1240   2.385       .  S
C1241      C1741   1.480       .  S
C1242      C1816   1.490       .  S
C1243      C1765   1.487       .  S
C1244      C1753   1.481       .  S
O1245     Ni1253   1.934       .  S
O1245      C1255   1.284       .  A
O1246     Ni1253   1.931       .  S
O1247     Ni1253   1.905       .  S
O1247      C1257   1.278       .  A
O1248     Ni1253   1.903       .  S
O1248      C1258   1.280       .  A
O1249     Ni1254   1.929       .  S
O1250     Ni1254   1.928       .  S
O1251     Ni1254   1.899       .  S
O1251      C1256   1.277       .  A
O1252      C1255   1.278       .  A
C1255      C1705   1.482       .  S
C1256      C1729   1.485       .  S
C1257      C1804   1.486       .  S
C1258      C1717   1.483       .  S
O1259     Ni1267   1.928       .  S
O1259      C1269   1.282       .  A
O1260     Ni1267   1.924       .  S
O1260      C1270   1.284       .  A
O1261     Ni1267   1.906       .  S
O1261      C1271   1.279       .  A
O1262     Ni1267   1.900       .  S
O1262      C1272   1.279       .  A
O1263     Ni1268   1.932       .  S
O1263      C1272   1.284       .  A
O1264     Ni1268   1.927       .  S
O1264      C1271   1.285       .  A
O1265     Ni1268   1.905       .  S
O1265      C1270   1.278       .  A
O1266     Ni1268   1.903       .  S
O1266      C1269   1.279       .  A
Ni1267    Ni1268   2.387       .  S
C1269      C1684   1.471       .  S
C1270      C1732   1.484       .  S
C1271      C1768   1.485       .  S
C1272      C1696   1.480       .  S
O1273     Ni1281   1.932       .  S
O1273      C1283   1.284       .  A
O1274     Ni1281   1.927       .  S
O1274      C1284   1.285       .  A
O1275     Ni1281   1.903       .  S
O1275      C1285   1.279       .  A
O1276     Ni1281   1.907       .  S
O1276      C1286   1.279       .  A
O1277     Ni1282   1.930       .  S
O1277      C1286   1.285       .  A
O1278     Ni1282   1.931       .  S
O1278      C1285   1.284       .  A
O1279     Ni1282   1.902       .  S
O1279      C1284   1.277       .  A
O1280     Ni1282   1.898       .  S
O1280      C1283   1.278       .  A
Ni1281    Ni1282   2.384       .  S
C1283      C1645   1.481       .  S
C1284      C1669   1.485       .  S
C1285      C1780   1.483       .  S
C1286      C1660   1.489       .  S
O1287     Ni1295   1.927       .  S
O1287      C1297   1.283       .  A
O1288     Ni1295   1.930       .  S
O1288      C1298   1.285       .  A
O1289     Ni1295   1.903       .  S
O1289      C1299   1.279       .  A
O1290     Ni1295   1.904       .  S
O1290      C1300   1.278       .  A
O1291     Ni1296   1.927       .  S
O1291      C1300   1.284       .  A
O1292     Ni1296   1.927       .  S
O1292      C1299   1.282       .  A
O1293     Ni1296   1.900       .  S
O1293      C1298   1.277       .  A
O1294     Ni1296   1.901       .  S
O1294      C1297   1.279       .  A
Ni1295    Ni1296   2.388       .  S
C1297      C1624   1.479       .  S
C1298      C1672   1.486       .  S
C1299      C1708   1.473       .  S
C1300      C1633   1.473       .  S
O1301     Ni1309   1.930       .  S
O1301      C1311   1.283       .  A
O1302     Ni1309   1.932       .  S
O1302      C1312   1.285       .  A
O1303     Ni1309   1.903       .  S
O1303      C1313   1.279       .  A
O1304     Ni1309   1.906       .  S
O1304      C1314   1.278       .  A
O1305     Ni1310   1.931       .  S
O1306      C1313   1.284       .  A
O1307     Ni1310   1.905       .  S
O1308      C1311   1.279       .  A
C1311      C1597   1.478       .  S
C1313      C1744   1.489       .  S
C1314      C1657   1.477       .  S
O1315     Ni1323   1.932       .  S
O1315      C1325   1.283       .  A
O1316     Ni1323   1.929       .  S
O1316      C1326   1.285       .  A
O1317     Ni1323   1.898       .  S
O1317      C1327   1.278       .  A
O1318     Ni1323   1.904       .  S
O1318      C1328   1.278       .  A
O1319     Ni1324   1.927       .  S
O1319      C1328   1.285       .  A
O1320     Ni1324   1.933       .  S
O1320      C1327   1.284       .  A
O1321     Ni1324   1.908       .  S
O1321      C1326   1.279       .  A
O1322     Ni1324   1.903       .  S
O1322      C1325   1.279       .  A
Ni1323    Ni1324   2.386       .  S
C1325      C1585   1.478       .  S
C1326      C1612   1.484       .  S
C1327      C1681   1.480       .  S
C1328      C1636   1.486       .  S
O1330     Ni1337   1.925   1_556  S
O1330      C1340   1.285       .  A
O1331     Ni1337   1.907       .  S
O1331      C1341   1.280   1_554  A
O1332     Ni1337   1.902       .  S
O1332      C1342   1.279   1_554  A
O1333     Ni1338   1.929       .  S
O1333      C1342   1.282       .  A
O1334     Ni1338   1.922       .  S
O1334      C1341   1.283       .  A
O1335     Ni1338   1.908       .  S
O1335      C1340   1.279       .  A
O1336     Ni1338   1.908       .  S
O1336      C1339   1.280       .  A
Ni1337    Ni1338   2.388   1_554  S
C1339      C1549   1.471   1_556  S
C1340      C1573   1.485       .  S
C1341      C1564   1.483       .  S
C1342      C1648   1.471       .  S
O1343     Ni1351   1.936       .  S
O1343      C1353   1.285       .  A
O1344     Ni1351   1.934       .  S
O1344      C1354   1.286       .  A
O1345     Ni1351   1.906       .  S
O1345      C1355   1.278       .  A
O1346     Ni1351   1.902       .  S
O1346      C1356   1.280       .  A
O1347     Ni1352   1.933       .  S
O1347      C1356   1.284       .  A
O1348     Ni1352   1.933       .  S
O1348      C1355   1.286       .  A
O1349     Ni1352   1.899       .  S
O1349      C1354   1.277       .  A
O1350     Ni1352   1.896       .  S
O1350      C1353   1.278       .  A
Ni1351    Ni1352   2.384       .  S
C1353      C1525   1.484       .  S
C1354      C1576   1.487       .  S
C1355      C1537   1.488       .  S
C1356      C1600   1.485       .  S
O1357     Ni1365   1.928       .  S
O1357      C1367   1.283       .  A
O1358     Ni1365   1.928       .  S
O1359     Ni1365   1.905       .  S
O1359      C1369   1.279       .  A
O1360     Ni1365   1.897       .  S
O1360      C1370   1.278       .  A
O1361     Ni1366   1.931       .  S
O1362     Ni1366   1.925       .  S
O1363     Ni1366   1.903       .  S
O1363      C1368   1.278       .  A
O1364      C1367   1.280       .  A
C1367      C1501   1.478       .  S
C1368      C1513   1.476       .  S
C1369      C1561   1.484       .  S
C1370      C1621   1.471       .  S
O1371     Ni1379   1.932       .  S
O1371      C1381   1.284       .  A
O1372     Ni1379   1.929       .  S
O1372      C1382   1.284       .  A
O1373     Ni1379   1.905       .  S
O1373      C1383   1.278       .  A
O1374     Ni1379   1.905       .  S
O1374      C1384   1.280       .  A
O1375     Ni1380   1.932       .  S
O1375      C1384   1.284       .  A
O1376     Ni1380   1.934       .  S
O1376      C1383   1.286       .  A
O1377     Ni1380   1.903       .  S
O1377      C1382   1.278       .  A
O1378     Ni1380   1.897       .  S
O1378      C1381   1.279       .  A
Ni1379    Ni1380   2.385       .  S
C1381      C1489   1.484       .  S
C1382      C1516   1.477       .  S
C1383      C1540   1.491       .  S
C1384      C1588   1.485       .  S
O1385     Ni1393   1.933       .  S
O1385      C1395   1.284       .  A
O1386     Ni1393   1.932       .  S
O1386      C1396   1.285       .  A
O1387     Ni1393   1.901       .  S
O1387      C1397   1.279       .  A
O1388     Ni1393   1.902       .  S
O1388      C1398   1.277       .  A
O1389     Ni1394   1.931       .  S
O1389      C1398   1.285       .  A
O1390     Ni1394   1.931       .  S
O1390      C1397   1.284       .  A
O1391     Ni1394   1.901       .  S
O1391      C1396   1.278       .  A
O1392     Ni1394   1.900       .  S
O1392      C1395   1.280       .  A
Ni1393    Ni1394   2.386       .  S
C1395      C1792   1.487       .  S
C1396      C1477   1.483       .  S
C1397      C1552   1.479       .  S
C1398      C1468   1.475       .  S
O1399     Ni1407   1.929       .  S
O1399      C1409   1.283       .  A
O1400     Ni1407   1.929       .  S
O1400      C1410   1.285       .  A
O1401     Ni1407   1.898       .  S
O1401      C1411   1.278       .  A
O1402     Ni1407   1.903       .  S
O1402      C1412   1.278       .  A
O1403     Ni1408   1.929       .  S
O1403      C1412   1.284       .  A
O1404     Ni1408   1.935       .  S
O1404      C1411   1.285       .  A
O1405     Ni1408   1.902       .  S
O1405      C1410   1.278       .  A
O1406     Ni1408   1.903       .  S
O1406      C1409   1.279       .  A
Ni1407    Ni1408   2.387       .  S
C1409      C1720   1.476       .  S
C1410      C1480   1.480       .  S
C1411      C1504   1.486       .  S
C1412      C1453   1.475       .  S
O1413     Ni1421   1.927       .  S
O1413      C1423   1.282       .  A
O1414     Ni1421   1.927       .  S
O1414      C1424   1.285       .  A
O1415     Ni1421   1.902       .  S
O1415      C1425   1.279       .  A
O1416     Ni1421   1.908       .  S
O1416      C1426   1.279       .  A
O1417     Ni1422   1.926       .  S
O1418      C1425   1.283       .  A
O1419     Ni1422   1.905       .  S
O1420      C1423   1.279       .  A
C1423      C1756   1.472       .  S
C1425      C1528   1.474       .  S
C1426      C1465   1.488       .  S
O1427     Ni1435   1.928       .  S
O1427      C1437   1.282       .  A
O1428     Ni1435   1.927       .  S
O1428      C1438   1.284       .  A
O1429     Ni1435   1.899       .  S
O1429      C1439   1.279       .  A
O1430     Ni1435   1.907       .  S
O1430      C1440   1.279       .  A
O1431     Ni1436   1.925       .  S
O1431      C1440   1.284       .  A
O1432     Ni1436   1.930       .  S
O1432      C1439   1.283       .  A
O1433     Ni1436   1.906       .  S
O1433      C1438   1.278       .  A
O1434     Ni1436   1.903       .  S
O1434      C1437   1.279       .  A
Ni1435    Ni1436   2.386       .  S
C1437      C1693   1.470       .  S
C1438      C1444   1.488       .  S
C1439      C1492   1.477       .  S
C1440      C1456   1.487       .  S
C1441      C1446   1.415       .  A
C1442      H1447   1.082       .  S
C1443      C1444   1.415   1_554  A
C1444      C1445   1.403       .  A
C1445      C1446   1.400       .  A
C1445      H1449   1.082       .  S
C1446      O1450   1.371       .  S
O1448      H1452   0.992       .  S
O1450      H1451   0.992       .  S
C1453      C1454   1.403       .  A
C1453      C1458   1.405       .  A
C1454      C1455   1.398       .  A
C1454      H1459   1.083       .  S
C1455      C1456   1.412       .  A
C1455      O1460   1.371       .  S
C1456      C1457   1.410       .  A
C1457      C1458   1.400       .  A
C1457      H1461   1.082       .  S
C1458      O1462   1.371       .  S
O1460      H1464   0.991   1_556  S
O1462      H1463   0.991       .  S
C1465      C1466   1.406       .  A
C1465      C1470   1.417       .  A
C1466      C1467   1.399       .  A
C1466      H1471   1.083       .  S
C1467      C1468   1.409       .  A
C1467      O1472   1.372       .  S
C1468      C1469   1.400       .  A
C1469      C1470   1.401       .  A
C1469      H1473   1.084       .  S
C1470      O1474   1.372       .  S
O1472      H1476   0.992       .  S
O1474      H1475   0.992       .  S
C1477      C1478   1.409       .  A
C1477      C1482   1.408       .  A
C1478      C1479   1.399       .  A
C1478      H1483   1.084       .  S
C1479      C1480   1.407       .  A
C1479      O1484   1.371       .  S
C1480      C1481   1.407       .  A
C1481      C1482   1.400       .  A
C1481      H1485   1.084       .  S
C1482      O1486   1.371       .  S
O1484      H1488   0.992       .  S
O1486      H1487   0.992       .  S
C1489      C1490   1.405       .  A
C1489      C1494   1.413       .  A
C1490      C1491   1.391   1_545  A
C1490      H1495   1.084       .  S
C1491      C1492   1.408       .  A
C1491      O1496   1.373       .  S
C1492      C1493   1.405   1_565  A
C1493      C1494   1.407       .  A
C1493      H1497   1.082   1_545  S
C1494      O1498   1.371       .  S
O1496      H1500   0.991       .  S
O1498      H1499   0.992       .  S
C1501      C1502   1.400       .  A
C1501      C1506   1.410       .  A
C1502      C1503   1.392       .  A
C1502      H1507   1.084       .  S
C1503      C1504   1.414       .  A
C1503      O1508   1.372       .  S
C1504      C1505   1.408       .  A
C1505      C1506   1.407       .  A
C1505      H1509   1.083       .  S
C1506      O1510   1.371       .  S
O1508      H1512   0.992       .  S
O1510      H1511   0.991       .  S
C1513      C1514   1.406       .  A
C1513      C1518   1.406       .  A
C1514      C1515   1.401       .  A
C1514      H1519   1.084       .  S
C1515      C1516   1.406       .  A
C1515      O1520   1.373       .  S
C1516      C1517   1.407       .  A
C1517      C1518   1.401       .  A
C1517      H1521   1.084       .  S
C1518      O1522   1.373       .  S
O1520      H1524   0.990       .  S
O1522      H1523   0.990       .  S
C1525      C1526   1.408       .  A
C1525      C1530   1.413       .  A
C1526      C1527   1.408       .  A
C1526      H1531   1.083       .  S
C1527      C1528   1.409   1_545  A
C1527      O1532   1.371   1_545  S
C1528      C1529   1.399       .  A
C1529      C1530   1.392   1_565  A
C1529      H1533   1.084       .  S
C1530      O1534   1.373       .  S
O1534      H1535   0.991       .  S
C1537      C1538   1.400       .  A
C1537      C1542   1.412       .  A
C1538      C1539   1.401       .  A
C1538      H1543   1.079       .  S
C1539      C1540   1.413       .  A
C1539      O1544   1.368       .  S
C1540      C1541   1.400       .  A
C1541      C1542   1.401       .  A
C1541      H1545   1.077       .  S
C1542      O1546   1.369       .  S
O1544      H1548   0.992       .  S
O1546      H1547   0.992       .  S
C1549      C1554   1.408       .  A
C1550      C1551   1.393       .  A
C1550      H1555   1.084       .  S
C1551      C1552   1.411       .  A
C1551      O1556   1.372       .  S
C1552      C1553   1.407       .  A
C1553      H1557   1.083       .  S
C1554      O1558   1.371       .  S
O1556      H1560   0.992       .  S
O1558      H1559   0.991       .  S
C1561      C1562   1.403       .  A
C1561      C1566   1.406   1_556  A
C1562      C1563   1.398       .  A
C1562      H1567   1.077       .  S
C1563      C1564   1.406       .  A
C1563      O1568   1.368       .  S
C1564      C1565   1.403   1_556  A
C1565      C1566   1.400       .  A
C1565      H1569   1.078       .  S
O1568      H1572   0.992       .  S
O1570      H1571   0.992       .  S
C1573      C1574   1.402       .  A
C1573      C1578   1.415       .  A
C1574      C1575   1.397       .  A
C1574      H1579   1.084       .  S
C1575      C1576   1.416       .  A
C1575      O1580   1.372       .  S
C1576      C1577   1.404       .  A
C1577      C1578   1.402       .  A
C1577      H1581   1.084       .  S
C1578      O1582   1.372       .  S
O1580      H1584   0.992       .  S
O1582      H1583   0.992       .  S
C1585      C1586   1.405       .  A
C1585      C1590   1.408       .  A
C1586      C1587   1.408       .  A
C1586      H1591   1.083       .  S
C1587      C1588   1.413   1_455  A
C1587      O1592   1.371   1_455  S
C1588      C1589   1.404   1_655  A
C1589      C1590   1.393       .  A
C1589      H1593   1.084   1_455  S
C1590      O1594   1.373       .  S
O1592      H1596   0.991       .  S
O1594      H1595   0.992       .  S
C1597      C1598   1.406       .  A
C1597      C1602   1.408       .  A
C1598      C1599   1.408       .  A
C1598      H1603   1.083       .  S
C1599      C1600   1.413       .  A
C1599      O1604   1.371       .  S
C1600      C1601   1.405       .  A
C1601      C1602   1.393       .  A
C1601      H1605   1.084       .  S
C1602      O1606   1.373       .  S
O1604      H1608   0.991       .  S
O1606      H1607   0.991       .  S
C1609      C1610   1.408       .  A
C1610      C1611   1.400       .  A
C1610      H1615   1.084       .  S
C1611      C1612   1.408       .  A
C1611      O1616   1.371       .  S
C1612      C1613   1.408   1_556  A
C1613      H1617   1.084       .  S
C1614      O1618   1.371       .  S
O1616      H1620   0.992       .  S
O1618      H1619   0.992       .  S
C1621      C1622   1.400       .  A
C1621      C1626   1.408   1_656  A
C1622      C1623   1.391   1_655  A
C1622      H1627   1.085       .  S
C1623      C1624   1.411       .  A
C1623      O1628   1.373       .  S
C1624      C1625   1.408       .  A
C1625      C1626   1.406   1_556  A
C1625      H1629   1.083   1_556  S
O1628      H1632   0.991       .  S
O1630      H1631   0.991       .  S
C1633      C1634   1.399       .  A
C1633      C1638   1.409       .  A
C1634      C1635   1.400       .  A
C1634      H1639   1.084       .  S
C1635      C1636   1.417       .  A
C1635      O1640   1.372       .  S
C1636      C1637   1.405       .  A
C1637      C1638   1.399       .  A
C1637      H1641   1.083       .  S
C1638      O1642   1.372       .  S
O1640      H1644   0.992       .  S
O1642      H1643   0.992       .  S
C1645      C1650   1.412       .  A
C1646      C1647   1.407       .  A
C1646      H1651   1.083       .  S
C1647      C1648   1.408       .  A
C1647      O1652   1.371       .  S
C1649      C1650   1.392       .  A
C1649      H1653   1.085       .  S
C1650      O1654   1.373       .  S
O1652      H1656   0.991       .  S
O1654      H1655   0.991       .  S
C1657      C1658   1.404       .  A
C1657      C1662   1.405       .  A
C1658      C1659   1.401       .  A
C1658      H1663   1.083       .  S
C1659      C1660   1.411       .  A
C1659      O1664   1.371       .  S
C1660      C1661   1.411       .  A
C1661      C1662   1.401       .  A
C1661      H1665   1.083       .  S
C1662      O1666   1.371       .  S
O1664      H1668   0.991       .  S
O1666      H1667   0.991       .  S
C1669      C1670   1.402       .  A
C1669      C1674   1.415       .  A
C1670      C1671   1.399       .  A
C1670      H1675   1.083       .  S
C1671      C1672   1.415       .  A
C1671      O1676   1.371       .  S
C1672      C1673   1.403       .  A
C1673      C1674   1.399       .  A
C1673      H1677   1.083       .  S
C1674      O1678   1.371       .  S
O1676      H1680   0.992       .  S
O1678      H1679   0.992       .  S
C1681      C1682   1.407       .  A
C1681      C1686   1.411       .  A
C1682      C1683   1.407   1_545  A
C1682      H1687   1.083       .  S
C1683      C1684   1.408       .  A
C1683      O1688   1.371       .  S
C1684      C1685   1.399       .  A
C1685      C1686   1.391   1_565  A
C1685      H1689   1.084       .  S
C1686      O1690   1.372       .  S
O1688      H1692   0.992       .  S
O1690      H1691   0.992       .  S
C1693      C1694   1.399       .  A
C1693      C1698   1.408       .  A
C1694      C1695   1.392   1_655  A
C1694      H1699   1.084       .  S
C1695      C1696   1.412       .  A
C1695      O1700   1.372       .  S
C1696      C1697   1.407       .  A
C1697      C1698   1.407   1_455  A
C1697      H1701   1.083       .  S
C1698      O1702   1.372       .  S
O1700      H1704   0.992       .  S
O1702      H1703   0.992       .  S
C1705      C1706   1.408       .  A
C1705      C1710   1.412       .  A
C1706      C1707   1.407       .  A
C1706      H1711   1.083       .  S
C1707      C1708   1.409       .  A
C1707      O1712   1.371       .  S
C1708      C1709   1.399       .  A
C1709      C1710   1.391       .  A
C1709      H1713   1.084       .  S
C1710      O1714   1.373   1_556  S
O1712      H1716   0.991       .  S
C1717      C1718   1.404       .  A
C1717      C1722   1.413       .  A
C1718      C1719   1.393   1_455  A
C1718      H1723   1.084       .  S
C1719      C1720   1.407       .  A
C1719      O1724   1.373       .  S
C1720      C1721   1.405       .  A
C1721      C1722   1.407   1_655  A
C1721      H1725   1.083   1_556  S
O1724      H1728   0.992       .  S
O1726      H1727   0.992       .  S
C1729      C1730   1.404       .  A
C1729      C1734   1.416       .  A
C1730      C1731   1.401       .  A
C1730      H1735   1.083       .  S
C1731      C1732   1.415       .  A
C1731      O1736   1.372       .  S
C1732      C1733   1.402       .  A
C1733      C1734   1.397       .  A
C1733      H1737   1.084       .  S
C1734      O1738   1.372       .  S
O1736      H1740   0.992       .  S
O1738      H1739   0.992       .  S
C1741      C1742   1.401       .  A
C1741      C1746   1.409       .  A
C1742      C1743   1.394   1_565  A
C1742      H1747   1.084       .  S
C1743      C1744   1.413       .  A
C1743      O1748   1.373       .  S
C1744      C1745   1.410       .  A
C1745      C1746   1.409   1_545  A
C1745      H1749   1.083       .  S
C1746      O1750   1.371       .  S
O1748      H1752   0.992       .  S
O1750      H1751   0.991       .  S
C1753      C1754   1.407       .  A
C1753      C1758   1.412       .  A
C1754      C1755   1.407       .  A
C1754      H1759   1.083       .  S
C1755      C1756   1.409       .  A
C1755      O1760   1.372       .  S
C1756      C1757   1.399       .  A
C1757      C1758   1.392       .  A
C1757      H1761   1.084       .  S
C1758      O1762   1.372       .  S
O1760      H1764   0.992       .  S
O1762      H1763   0.992       .  S
C1765      C1766   1.400       .  A
C1765      C1770   1.412       .  A
C1766      C1767   1.401       .  A
C1766      H1771   1.077       .  S
C1767      C1768   1.411       .  A
C1767      O1772   1.369       .  S
C1768      C1769   1.399       .  A
C1769      C1770   1.399       .  A
C1769      H1773   1.078       .  S
C1770      O1774   1.368       .  S
O1772      H1776   0.992       .  S
O1774      H1775   0.992       .  S
C1778      C1779   1.393       .  A
C1779      C1780   1.412       .  A
C1779      O1784   1.372       .  S
C1780      C1781   1.408       .  A
C1781      C1782   1.407       .  A
C1781      H1785   1.083       .  S
C1782      O1786   1.371       .  S
O1784      H1788   0.992       .  S
O1786      H1787   0.991       .  S
C1789      C1790   1.406       .  A
C1790      C1791   1.409       .  A
C1790      H1795   1.083       .  S
C1791      O1796   1.371       .  S
C1792      C1793   1.405       .  A
C1793      C1794   1.390       .  A
C1793      H1797   1.083       .  S
C1794      O1798   1.373       .  S
O1796      H1800   0.992       .  S
O1798      H1799   0.992       .  S
C1801      C1802   1.404   1_556  A
C1801      C1806   1.405       .  A
C1802      C1803   1.399       .  A
C1803      C1804   1.405   1_554  A
C1804      C1805   1.404       .  A
C1805      C1806   1.400       .  A
C1805      H1809   1.076       .  S
C1806      O1810   1.368       .  S
O1808      H1812   0.992       .  S
O1810      H1811   0.992       .  S
C1813      C1814   1.403       .  A
C1813      C1818   1.415       .  A
C1814      C1815   1.400       .  A
C1814      H1819   1.082       .  S
C1815      C1816   1.415       .  A
C1815      O1820   1.371       .  S
C1816      C1817   1.404       .  A
C1817      C1818   1.402       .  A
C1817      H1821   1.082       .  S
C1818      O1822   1.371       .  S
O1820      H1824   0.992       .  S
O1822      H1823   0.992       .  S
