geometry optimzed in LAMMPS
_audit_creation_date              2020-12-01 
_audit_creation_method            'lammps2cif' 
_symmetry_space_group_name_H-M    'P1' 
_symmetry_Int_Tables_number       1 
_symmetry_cell_setting            triclinic 
loop_ 
_symmetry_equiv_pos_as_xyz 
  x,y,z 
_cell_length_a                    55.43572948 
_cell_length_b                    55.49704923161034 
_cell_length_c                    55.44922011368959 
_cell_angle_alpha                 90.05147014196363 
_cell_angle_beta                  89.99304683977154 
_cell_angle_gamma                 89.88671280689746 
loop_ 
_atom_site_label 
_atom_site_type_symbol 
_atom_site_fract_x 
_atom_site_fract_y 
_atom_site_fract_z 
_atom_site_charge 
O1          O  0.62873377  0.29213812  0.84083803    -0.74600
O2          O  0.63236238  0.31941874  0.90384237    -0.74600
O3          O  0.66218110  0.29229829  0.87610216    -0.74700
O4          O  0.59872006  0.31893666  0.86848337    -0.74700
O5          O  0.58320399  0.28531000  0.88396193    -0.74600
O6          O  0.64615583  0.25899003  0.89159964    -0.74600
O7          O  0.61666449  0.28600008  0.91937476    -0.74600
O8          O  0.61291724  0.25866127  0.85617754    -0.74700
Ni9        Ni  0.63105652  0.30694010  0.87181109     1.25400
Ni10       Ni  0.61415371  0.27109597  0.88836551     1.25400
C11         C  0.62035366  0.27086115  0.83802675     0.87600
C12         C  0.62526402  0.30722959  0.92209647     0.87500
C13         C  0.66457667  0.27103693  0.88486360     0.87600
C14         C  0.58046460  0.30614733  0.87452336     0.87700
O15         O  0.30824121  0.61767115  0.84202301    -0.74600
O16         O  0.33274629  0.62372437  0.90632609    -0.74600
O17         O  0.33525343  0.58931289  0.87158146    -0.74700
O18         O  0.30588653  0.65170651  0.87690043    -0.74700
O19         O  0.27262084  0.63474130  0.89139767    -0.74600
O20         O  0.30170635  0.57264549  0.88585811    -0.74600
O21         O  0.29930823  0.60653564  0.92052167    -0.74600
O22         O  0.27486011  0.60086642  0.85648921    -0.74700
Ni23       Ni  0.32177793  0.62116539  0.87368444     1.25400
Ni24       Ni  0.28597265  0.60308029  0.88905070     1.25400
C25         C  0.28727671  0.60860394  0.83861912     0.87600
C26         C  0.31985855  0.61637834  0.92401080     0.87500
C27         C  0.32329001  0.57059614  0.87787014     0.87600
C28         C  0.28432092  0.65355254  0.88507498     0.87700
O29         O  0.36420876  0.31982732  0.82042466    -0.74600
O30         O  0.36103213  0.38423456  0.84501623    -0.74600
O31         O  0.33007446  0.35491516  0.82101800    -0.74700
O32         O  0.39510799  0.34937624  0.84421918    -0.74700
O33         O  0.40862758  0.36297775  0.80887382    -0.74600
O34         O  0.34417157  0.36883112  0.78603960    -0.74600
O35         O  0.37495954  0.39824287  0.81010926    -0.74600
O36         O  0.37781093  0.33368623  0.78531973    -0.74700
Ni37       Ni  0.36210169  0.35160940  0.83394131     1.25400
Ni38       Ni  0.37685404  0.36648681  0.79637349     1.25400
C39         C  0.37159501  0.31601823  0.79883623     0.87600
C40         C  0.36767083  0.40190427  0.83177612     0.87500
C41         C  0.32654941  0.36236933  0.79942371     0.87600
C42         C  0.41254582  0.35507818  0.83016792     0.87700
O43         O  0.60631997  0.62982896  0.23136438    -0.74600
O44         O  0.61535636  0.56912878  0.20018867    -0.74600
O45         O  0.64275307  0.59801967  0.22795608    -0.74700
O46         O  0.57855331  0.60100249  0.20378083    -0.74700
O47         O  0.59160199  0.61953793  0.17066547    -0.74600
O48         O  0.65615468  0.61683824  0.19508174    -0.74600
O49         O  0.62860602  0.58765490  0.16722184    -0.74600
O50         O  0.61971658  0.64844088  0.19833848    -0.74700
Ni51       Ni  0.61022891  0.59877591  0.21692874     1.25400
Ni52       Ni  0.62443754  0.61874074  0.18157199     1.25400
C53         C  0.61205400  0.64911538  0.22011136     0.87600
C54         C  0.62390089  0.56824955  0.17872550     0.87500
C55         C  0.65992454  0.60749410  0.21585314     0.87600
C56         C  0.57433257  0.61112602  0.18351049     0.87700
O57         O  0.71880261  0.36792675  0.15705277    -0.74600
O58         O  0.69610117  0.36283321  0.09209791    -0.74600
O59         O  0.69628603  0.39786416  0.12590417    -0.74700
O60         O  0.71886350  0.33317650  0.12294479    -0.74700
O61         O  0.68351567  0.31991086  0.13661929    -0.74600
O62         O  0.66057401  0.38507820  0.13912504    -0.74600
O63         O  0.66058846  0.34975010  0.10561028    -0.74600
O64         O  0.68315705  0.35516186  0.17032581    -0.74700
Ni65       Ni  0.70876081  0.36593906  0.12403528     1.25400
Ni66       Ni  0.67066731  0.35203091  0.13841378     1.25400
C67         C  0.70474343  0.36214674  0.17446707     0.87600
C68         C  0.67470070  0.35509994  0.08816774     0.87500
C69         C  0.67480299  0.40222754  0.13307433     0.87600
C70         C  0.70503021  0.31584121  0.12916464     0.87700
O71         O  0.37318567  0.70303533  0.16011681    -0.74600
O72         O  0.36565058  0.67487840  0.09795386    -0.74600
O73         O  0.33733358  0.70161130  0.12756066    -0.74700
O74         O  0.40152905  0.67606757  0.13065846    -0.74700
O75         O  0.38724156  0.64215409  0.14651864    -0.74600
O76         O  0.32351943  0.66852840  0.14538676    -0.74600
O77         O  0.35033299  0.64169908  0.11468316    -0.74600
O78         O  0.36020244  0.66903687  0.17714971    -0.74700
Ni79       Ni  0.36997132  0.69007484  0.12844759     1.25400
Ni80       Ni  0.35485774  0.65412810  0.14652447     1.25400
C81         C  0.36749690  0.69084389  0.17881238     0.87600
C82         C  0.35649208  0.65383353  0.09607596     0.87500
C83         C  0.31978703  0.68945184  0.13641903     0.87600
C84         C  0.40500345  0.65476278  0.13887280     0.87700
O85         O  0.61586191  0.20402001  0.65645903    -0.74600
O86         O  0.61835434  0.17636902  0.59336829    -0.74600
O87         O  0.58635438  0.17571532  0.63029896    -0.74700
O88         O  0.64766634  0.20514845  0.61975041    -0.74700
O89         O  0.66596995  0.17209184  0.63357867    -0.74600
O90         O  0.60425492  0.14338437  0.64596006    -0.74600
O91         O  0.63564250  0.14344966  0.60844058    -0.74600
O92         O  0.63476635  0.17177707  0.67109984    -0.74700
Ni93       Ni  0.61639718  0.19142895  0.62437692     1.25400
Ni94       Ni  0.63580474  0.15648603  0.64027239     1.25400
C95         C  0.62510385  0.19249327  0.67422032     0.87600
C96         C  0.62743912  0.15532312  0.59043265     0.87500
C97         C  0.58503951  0.15503295  0.64044212     0.87600
C98         C  0.66690371  0.19350449  0.62496295     0.87700
O99         O  0.68550468  0.11118816  0.34042946    -0.74600
O100        O  0.66094246  0.11663707  0.40480523    -0.74600
O101        O  0.68662842  0.14568603  0.37547272    -0.74700
O102        O  0.65986855  0.08209836  0.37007934    -0.74700
O103        O  0.69406888  0.06684758  0.38469366    -0.74600
O104        O  0.72112352  0.12996922  0.38897616    -0.74600
O105        O  0.69548791  0.10167026  0.41895683    -0.74600
O106        O  0.71951175  0.09534136  0.35467858    -0.74700
Ni107      Ni  0.67198692  0.11445677  0.37216739     1.25400
Ni108      Ni  0.70870997  0.09788436  0.38734551     1.25400
C109        C  0.70654331  0.10219821  0.33684265     0.87600
C110        C  0.67444766  0.11054780  0.42252516     0.87500
C111        C  0.70827538  0.14826174  0.38323662     0.87600
C112        C  0.67283810  0.06392095  0.37611362     0.87700
O113        O  0.38559793  0.12765460  0.74780843    -0.74600
O114        O  0.38536766  0.06350319  0.72220098    -0.74600
O115        O  0.41804335  0.10012659  0.72363360    -0.74700
O116        O  0.35317902  0.09156805  0.74622029    -0.74700
O117        O  0.33929856  0.10511012  0.71097297    -0.74600
O118        O  0.40376676  0.11373031  0.68856364    -0.74600
O119        O  0.37149723  0.07735172  0.68712540    -0.74600
O120        O  0.37152106  0.14154935  0.71290679    -0.74700
Ni121      Ni  0.38610859  0.09515728  0.73618324     1.25400
Ni122      Ni  0.37107073  0.10993402  0.69865177     1.25400
C123        C  0.37831432  0.14523074  0.73473808     0.87600
C124        C  0.37800748  0.05975466  0.70060737     0.87500
C125        C  0.42149693  0.10849170  0.70236644     0.87600
C126        C  0.33558773  0.09718867  0.73230433     0.87700
O127        O  0.30494037  0.81733716  0.64222212    -0.74600
O128        O  0.33904703  0.87672973  0.65068234    -0.74600
O129        O  0.30661502  0.85117618  0.67712937    -0.74700
O130        O  0.33706661  0.84252168  0.61568665    -0.74700
O131        O  0.30688433  0.86264429  0.59830540    -0.74600
O132        O  0.27632870  0.87072285  0.65933345    -0.74600
O133        O  0.30860879  0.89632363  0.63335518    -0.74600
O134        O  0.27484284  0.83692034  0.62434857    -0.74700
Ni135      Ni  0.32304779  0.84627462  0.64706452     1.25400
Ni136      Ni  0.29064451  0.86737984  0.62820657     1.25400
C137        C  0.28416508  0.81724912  0.63205956     0.87600
C138        C  0.32940912  0.89645199  0.64341847     0.87500
C139        C  0.28622977  0.86207958  0.67828893     0.87600
C140        C  0.32678356  0.85103813  0.59683291     0.87700
O141        O  0.62028301  0.81472136  0.32157465    -0.74600
O142        O  0.62563876  0.87896527  0.34597900    -0.74600
O143        O  0.59111050  0.84438293  0.34703790    -0.74700
O144        O  0.65466658  0.84932180  0.32047148    -0.74700
O145        O  0.63890857  0.86328275  0.28635189    -0.74600
O146        O  0.57575548  0.85866585  0.31285723    -0.74600
O147        O  0.61022270  0.89317416  0.31174834    -0.74600
O148        O  0.60455957  0.82894739  0.28746091    -0.74700
Ni149      Ni  0.62343644  0.84633908  0.33502681     1.25400
Ni150      Ni  0.60678456  0.86154091  0.29843201     1.25400
C151        C  0.61175521  0.81123059  0.30039489     0.87600
C152        C  0.61924135  0.89674712  0.33272411     0.87500
C153        C  0.57285719  0.85041042  0.33417582     0.87600
C154        C  0.65729987  0.85732168  0.29895044     0.87700
O155        O  0.37259339  0.75113750  0.36238645    -0.74600
O156        O  0.37115203  0.77858702  0.42538163    -0.74600
O157        O  0.33989215  0.75310800  0.39826115    -0.74700
O158        O  0.40378861  0.77673388  0.38941565    -0.74700
O159        O  0.38897755  0.81129402  0.37518991    -0.74600
O160        O  0.32514488  0.78669334  0.38197299    -0.74600
O161        O  0.35502895  0.81227523  0.41031664    -0.74600
O162        O  0.35896876  0.78568900  0.34688839    -0.74700
Ni163      Ni  0.37240753  0.76368582  0.39441827     1.25400
Ni164      Ni  0.35651758  0.80024642  0.37805965     1.25400
C165        C  0.36607925  0.76388135  0.34430112     0.87600
C166        C  0.36245269  0.79975412  0.42821808     0.87500
C167        C  0.32190609  0.76593367  0.39145653     0.87600
C168        C  0.40693127  0.79782061  0.38065958     0.87700
O169        O  0.14722002  0.78260699  0.13884659    -0.74600
O170        O  0.08256916  0.80627635  0.13727496    -0.74600
O171        O  0.10912265  0.78005839  0.16880214    -0.74700
O172        O  0.12081874  0.80889303  0.10728224    -0.74700
O173        O  0.10859719  0.77518211  0.08920474    -0.74600
O174        O  0.09773064  0.74600952  0.15074652    -0.74600
O175        O  0.07029281  0.77244053  0.11964635    -0.74600
O176        O  0.13549611  0.74902930  0.12039992    -0.74700
Ni177      Ni  0.11528622  0.79566923  0.13866661     1.25400
Ni178      Ni  0.10251203  0.75948750  0.11931687     1.25400
C179        C  0.15213776  0.76182844  0.13008119     0.87600
C180        C  0.06565645  0.79336202  0.12832948     0.87500
C181        C  0.10240418  0.75802294  0.16991166     0.87600
C182        C  0.11684870  0.79670502  0.08808130     0.87700
O183        O  0.82166495  0.85387268  0.19835786    -0.74600
O184        O  0.88238586  0.84454875  0.16691283    -0.74600
O185        O  0.85397210  0.81764259  0.19586143    -0.74700
O186        O  0.84976022  0.88121091  0.16947787    -0.74700
O187        O  0.86800026  0.89578965  0.20216565    -0.74600
O188        O  0.87323207  0.83238052  0.22793484    -0.74600
O189        O  0.90088339  0.85972311  0.19911913    -0.74600
O190        O  0.84031049  0.86804961  0.23096284    -0.74700
Ni191      Ni  0.85129435  0.84886762  0.18143006     1.25400
Ni192      Ni  0.87130821  0.86457632  0.21612616     1.25400
C193        C  0.82092965  0.86193876  0.22001646     0.87600
C194        C  0.90180087  0.84994343  0.17820736     0.87500
C195        C  0.86425032  0.81459899  0.21632414     0.87600
C196        C  0.85757269  0.89907766  0.18185335     0.87700
O197        O  0.21347186  0.86997541  0.85654165    -0.74600
O198        O  0.18933902  0.86349522  0.92069090    -0.74600
O199        O  0.21693985  0.83615227  0.89147272    -0.74700
O200        O  0.18576190  0.89733641  0.88571757    -0.74700
O201        O  0.15286781  0.87947419  0.87122407    -0.74600
O202        O  0.18393489  0.81827471  0.87717158    -0.74600
O203        O  0.15628565  0.84575475  0.90652318    -0.74600
O204        O  0.18072674  0.85193384  0.84210886    -0.74700
Ni205      Ni  0.20251055  0.86740661  0.88912282     1.25400
Ni206      Ni  0.16724039  0.84823711  0.87377723     1.25400
C207        C  0.20123235  0.86197871  0.83865070     0.87600
C208        C  0.16905366  0.85317572  0.92432822     0.87500
C209        C  0.20553931  0.81708858  0.88526880     0.87600
C210        C  0.16430954  0.89857613  0.87724001     0.87700
O211        O  0.14642281  0.09739674  0.77671565    -0.74600
O212        O  0.08131573  0.10221900  0.79959645    -0.74600
O213        O  0.11205610  0.13205952  0.77578869    -0.74700
O214        O  0.11588718  0.06766118  0.80020519    -0.74700
O215        O  0.12781710  0.08178605  0.83594467    -0.74600
O216        O  0.12682405  0.14591923  0.81051526    -0.74600
O217        O  0.09482507  0.11763416  0.83419979    -0.74600
O218        O  0.15966597  0.11003444  0.81252373    -0.74700
Ni219      Ni  0.11337255  0.09932985  0.78681573     1.25400
Ni220      Ni  0.12770225  0.11435869  0.82455541     1.25400
C221        C  0.16377057  0.10258686  0.79107839     0.87600
C222        C  0.07740811  0.11102630  0.82061259     0.87500
C223        C  0.11957236  0.14954979  0.78886673     0.87600
C224        C  0.12264184  0.06412787  0.82200446     0.87700
O225        O  0.79908543  0.11272967  0.16670124    -0.74600
O226        O  0.82780529  0.11885873  0.10394658    -0.74600
O227        O  0.80088242  0.14780909  0.13290637    -0.74700
O228        O  0.82608869  0.08386991  0.13800770    -0.74700
O229        O  0.79202446  0.06949874  0.12223134    -0.74600
O230        O  0.76767679  0.13348323  0.11532606    -0.74600
O231        O  0.79444707  0.10367784  0.08765050    -0.74600
O232        O  0.76527335  0.09920504  0.14991403    -0.74700
Ni233      Ni  0.81469847  0.11634994  0.13595915     1.25400
Ni234      Ni  0.77870364  0.10095866  0.11815314     1.25400
C235        C  0.77739515  0.10491873  0.16871551     0.87600
C236        C  0.81579218  0.11218433  0.08535270     0.87500
C237        C  0.78012436  0.15115887  0.12333438     0.87600
C238        C  0.81295525  0.06611351  0.13138746     0.87700
O239        O  0.82631715  0.16613475  0.86866653    -0.74600
O240        O  0.88782890  0.13607005  0.86002559    -0.74600
O241        O  0.85493931  0.13797096  0.89657484    -0.74700
O242        O  0.85900363  0.16442628  0.83278145    -0.74700
O243        O  0.87759210  0.19677324  0.84774718    -0.74600
O244        O  0.87259878  0.17087458  0.91114611    -0.74600
O245        O  0.90572209  0.16854833  0.87556473    -0.74600
O246        O  0.84433082  0.19895033  0.88328014    -0.74700
Ni247      Ni  0.85640053  0.14990933  0.86403414     1.25400
Ni248      Ni  0.87570742  0.18490938  0.87997802     1.25400
C249        C  0.82522701  0.18763397  0.87697815     0.87600
C250        C  0.90691151  0.14755619  0.86604442     0.87500
C251        C  0.86278721  0.15029623  0.91451362     0.87600
C252        C  0.86904151  0.18499797  0.82984861     0.87700
O253        O  0.17929664  0.65436955  0.64216312    -0.74600
O254        O  0.15044891  0.59198594  0.64950059    -0.74600
O255        O  0.18037467  0.61994431  0.67676844    -0.74700
O256        O  0.14973799  0.62693117  0.61496131    -0.74700
O257        O  0.18151107  0.60949870  0.59741762    -0.74600
O258        O  0.21222388  0.60311009  0.65892982    -0.74600
O259        O  0.18250752  0.57527442  0.63210818    -0.74600
O260        O  0.21102860  0.63738429  0.62437086    -0.74700
Ni261      Ni  0.16377665  0.62384475  0.64651239     1.25400
Ni262      Ni  0.19790601  0.60569866  0.62759922     1.25400
C263        C  0.19991980  0.65620818  0.63187120     0.87600
C264        C  0.16172688  0.57322192  0.64194656     0.87500
C265        C  0.20154583  0.61062945  0.67799084     0.87600
C266        C  0.16085226  0.61974294  0.59599648     0.87700
O267        O  0.14314203  0.37217433  0.73650870    -0.74600
O268        O  0.08067528  0.36365264  0.70958939    -0.74600
O269        O  0.11190707  0.33539773  0.73400889    -0.74700
O270        O  0.11197276  0.40068327  0.71158075    -0.74700
O271        O  0.12837885  0.38882395  0.67688282    -0.74600
O272        O  0.12845944  0.32345768  0.69940125    -0.74600
O273        O  0.09692486  0.35179701  0.67472818    -0.74600
O274        O  0.16000545  0.36060740  0.70180992    -0.74700
Ni275      Ni  0.11135595  0.36847286  0.72409308     1.25400
Ni276      Ni  0.12906206  0.35577927  0.68692558     1.25400
C277        C  0.16178972  0.36707644  0.72393977     0.87600
C278        C  0.07842407  0.35617768  0.68789497     0.87500
C279        C  0.12026283  0.31860040  0.72047087     0.87600
C280        C  0.12001259  0.40556608  0.69046984     0.87700
O281        O  0.13890431  0.70349986  0.39030090    -0.74600
O282        O  0.07663586  0.67525041  0.38357222    -0.74600
O283        O  0.10964121  0.67776578  0.41945591    -0.74700
O284        O  0.10601644  0.70117989  0.35457376    -0.74700
O285        O  0.12253984  0.66704105  0.34109237    -0.74600
O286        O  0.12686362  0.64397909  0.40618428    -0.74600
O287        O  0.09360311  0.64121943  0.37062687    -0.74600
O288        O  0.15573675  0.66963262  0.37667388    -0.74700
Ni289      Ni  0.10715277  0.69061445  0.38745017     1.25400
Ni290      Ni  0.12525190  0.65423470  0.37317667     1.25400
C291        C  0.15760887  0.69126458  0.38442119     0.87600
C292        C  0.07481798  0.65353400  0.37600770     0.87500
C293        C  0.11932443  0.65719453  0.42361257     0.87600
C294        C  0.11398555  0.68815757  0.33721887     0.87700
O295        O  0.83371356  0.28916165  0.62894522    -0.74600
O296        O  0.89684725  0.31390015  0.64067821    -0.74600
O297        O  0.86462934  0.31733465  0.60447715    -0.74700
O298        O  0.86594687  0.28544413  0.66527352    -0.74700
O299        O  0.88187805  0.25280068  0.64797013    -0.74600
O300        O  0.88041573  0.28487055  0.58692064    -0.74600
O301        O  0.91293085  0.28125185  0.62347075    -0.74600
O302        O  0.84964737  0.25636138  0.61184797    -0.74700
Ni303      Ni  0.86476182  0.30262133  0.63544587     1.25400
Ni304      Ni  0.88186719  0.26769349  0.61686228     1.25400
C305        C  0.83130436  0.26860696  0.61877854     0.87600
C306        C  0.91526272  0.30153776  0.63426277     0.87500
C307        C  0.87178556  0.30625994  0.58552114     0.87600
C308        C  0.87382131  0.26377269  0.66663933     0.87700
O309        O  0.82803637  0.61543285  0.31331535    -0.74600
O310        O  0.89252841  0.61570714  0.33726004    -0.74600
O311        O  0.86450950  0.64738384  0.31298030    -0.74700
O312        O  0.85586150  0.58372960  0.33750681    -0.74700
O313        O  0.86900763  0.56842026  0.30274554    -0.74600
O314        O  0.87761308  0.63212627  0.27818897    -0.74600
O315        O  0.90563917  0.60048400  0.30243147    -0.74600
O316        O  0.84124273  0.60008880  0.27862078    -0.74700
Ni317      Ni  0.85982511  0.61608753  0.32654517     1.25400
Ni318      Ni  0.87389356  0.59972293  0.28927969     1.25400
C319        C  0.82397807  0.60773883  0.29194269     0.87600
C320        C  0.90975553  0.60841112  0.32369823     0.87500
C321        C  0.87212033  0.65028738  0.29136508     0.87600
C322        C  0.86066612  0.56555923  0.32409008     0.87700
O323        O  0.75982653  0.33580712  0.39729998    -0.74600
O324        O  0.78404228  0.39969368  0.38760017    -0.74600
O325        O  0.75840041  0.36824484  0.36098420    -0.74700
O326        O  0.78590297  0.36732971  0.42443133    -0.74700
O327        O  0.81987725  0.35232055  0.40906214    -0.74600
O328        O  0.79249593  0.35285348  0.34632014    -0.74600
O329        O  0.81810796  0.38433386  0.37263404    -0.74600
O330        O  0.79418468  0.32061122  0.38278966    -0.74700
Ni331      Ni  0.77082023  0.36832532  0.39322923     1.25400
Ni332      Ni  0.80735701  0.35199539  0.37723799     1.25400
C333        C  0.77288869  0.31771244  0.39121728     0.87600
C334        C  0.80478653  0.40247439  0.37781649     0.87500
C335        C  0.77105313  0.36075539  0.34312044     0.87600
C336        C  0.80750824  0.35949536  0.42716402     0.87700
C337        C  0.81335388  0.42681029  0.37152938    -0.20000
C338        C  0.79737550  0.44459279  0.36264129     0.36200
C339        C  0.80663486  0.46692053  0.35525257    -0.26000
C340        C  0.83141654  0.47157252  0.35632691     0.02600
C341        C  0.84737899  0.45396220  0.36514776     0.27400
C342        C  0.83817797  0.43168972  0.37271067    -0.25100
N343        N  0.77201109  0.43967031  0.36039256    -0.82500
H344        H  0.79458509  0.48065416  0.34828508     0.13300
C345        C  0.84043026  0.49503655  0.34799293     0.02600
N346        N  0.87282514  0.45879195  0.36623692    -0.81100
H347        H  0.85043629  0.41799830  0.37937844     0.18100
C348        C  0.84544153  0.51291939  0.36503154    -0.25900
C349        C  0.85312374  0.53586789  0.35778732     0.36100
C350        C  0.85547381  0.54096878  0.33289832    -0.19900
C351        C  0.85123654  0.52259670  0.31594158    -0.25200
C352        C  0.84372448  0.49963205  0.32328321     0.27500
H353        H  0.84313637  0.50895901  0.38402866     0.13200
N354        N  0.85849893  0.55392136  0.37559652    -0.82500
H355        H  0.85307528  0.52633136  0.29685505     0.18100
N356        N  0.83897112  0.48108160  0.30580784    -0.81100
H357        H  0.85551019  0.54728191  0.39298212     0.33700
H358        H  0.87693154  0.55770669  0.37440031     0.38200
H359        H  0.84203897  0.48746667  0.28834091     0.33700
H360        H  0.85140880  0.46719407  0.30869108     0.30400
H361        H  0.88209543  0.44399535  0.37335552     0.33700
H362        H  0.87899327  0.46096945  0.34855417     0.30400
H363        H  0.76999069  0.42604649  0.34750945     0.38300
H364        H  0.76284411  0.45473739  0.35371433     0.33700
C365        C  0.81868809  0.35779900  0.45133348    -0.20000
C366        C  0.80492905  0.35638787  0.47275826     0.36200
C367        C  0.81666044  0.35115452  0.49458276    -0.26000
C368        C  0.84168076  0.34730213  0.49538397     0.02600
C369        C  0.85554810  0.35012023  0.47436366     0.27400
C370        C  0.84393574  0.35540892  0.45259862    -0.25100
N371        N  0.77915027  0.35926844  0.47227265    -0.82500
H372        H  0.80610421  0.34892787  0.51087906     0.13300
C373        C  0.85274111  0.33862701  0.51801466     0.02600
N374        N  0.88130358  0.34709425  0.47515520    -0.81100
H375        H  0.85469991  0.35704244  0.43637429     0.18100
C376        C  0.86482903  0.31640037  0.51809759    -0.25900
C377        C  0.87307227  0.30610834  0.53970169     0.36100
C378        C  0.86841074  0.31810186  0.56177271    -0.19900
C379        C  0.85772030  0.34113676  0.56128944    -0.25200
C380        C  0.84992505  0.35152128  0.53964863     0.27500
H381        H  0.86712627  0.30667188  0.50129489     0.13200
N382        N  0.88538978  0.28328641  0.53923669    -0.82500
H383        H  0.85457234  0.35083258  0.57795707     0.18100
N384        N  0.83860899  0.37485579  0.53956856    -0.81100
H385        H  0.88658813  0.27667503  0.52161005     0.33700
H386        H  0.90309980  0.28630309  0.54496572     0.38200
H387        H  0.83770109  0.38189461  0.55704236     0.33700
H388        H  0.84963954  0.38644160  0.52963034     0.30400
H389        H  0.88883578  0.34954796  0.45804612     0.33700
H390        H  0.88827442  0.36070138  0.48617014     0.30400
H391        H  0.77197776  0.34450972  0.46301269     0.38300
H392        H  0.77204180  0.35857163  0.48972781     0.33700
C393        C  0.05077735  0.64262709  0.37256474    -0.20000
C394        C  0.02962602  0.65313538  0.38224854     0.36200
C395        C  0.00711756  0.64372129  0.37575981    -0.26000
C396        C  0.00533020  0.62361213  0.36054927     0.02600
C397        C  0.02641497  0.61209280  0.35226886     0.27400
C398        C  0.04891466  0.62182242  0.35820619    -0.25100
N399        N  0.03096097  0.67344185  0.39832191    -0.82500
H400        H  0.99083821  0.65258927  0.38199793     0.13300
C401        C  0.98132603  0.61652160  0.35149028     0.02600
N402        N  0.02482550  0.59090179  0.33741241    -0.81100
H403        H  0.06502669  0.61343227  0.35097286     0.18100
C404        C  0.97756507  0.61594431  0.32650170    -0.25900
C405        C  0.95449809  0.61250244  0.31687485     0.36100
C406        C  0.93472035  0.60972237  0.33271357    -0.19900
C407        C  0.93866320  0.60944809  0.35773574    -0.25200
C408        C  0.96182928  0.61264092  0.36729838     0.27500
H409        H  0.99254883  0.61934548  0.31442914     0.13200
N410        N  0.95106261  0.61288433  0.29116641    -0.82500
H411        H  0.92357470  0.60694760  0.36989943     0.18100
N412        N  0.96562003  0.61233333  0.39294852    -0.81100
H413        H  0.96759235  0.61441933  0.28221582     0.33700
H414        H  0.94123725  0.62842799  0.28699953     0.38200
H415        H  0.94935771  0.60944977  0.40204390     0.33700
H416        H  0.97675334  0.59762251  0.39686706     0.30400
H417        H  0.04201687  0.58478752  0.33259346     0.33700
H418        H  0.01695875  0.57730313  0.34779106     0.30400
H419        H  0.03949911  0.66761099  0.41409428     0.38300
H420        H  0.01370172  0.67915275  0.40339161     0.33700
C421        C  0.93949363  0.31073081  0.63991004    -0.20000
C422        C  0.95762502  0.29526879  0.64882990     0.36200
C423        C  0.98006107  0.30492592  0.65518665    -0.26000
C424        C  0.98455812  0.32968432  0.65320142     0.02600
C425        C  0.96665853  0.34513498  0.64392068     0.27400
C426        C  0.94417246  0.33547326  0.63742306    -0.25100
N427        N  0.95291765  0.27002517  0.65224037    -0.82500
H428        H  0.99398183  0.29320702  0.66235800     0.13300
C429        C  0.00772331  0.33899063  0.66235220     0.02600
N430        N  0.97126553  0.37050193  0.64151223    -0.81100
H431        H  0.93017881  0.34727644  0.63055111     0.18100
C432        C  0.02446559  0.34911761  0.64634989    -0.25900
C433        C  0.04767481  0.35553432  0.65430008     0.36100
C434        C  0.05398588  0.35161069  0.67864143    -0.19900
C435        C  0.03677088  0.34253269  0.69476218    -0.25200
C436        C  0.01370345  0.33616587  0.68686831     0.27500
H437        H  0.01960482  0.35139585  0.62756086     0.13200
N438        N  0.06477589  0.36593595  0.63785427    -0.82500
H439        H  0.04157064  0.33969719  0.71349630     0.18100
N440        N  0.99641725  0.32634824  0.70350563    -0.81100
H441        H  0.05723678  0.36758005  0.62064782     0.33700
H442        H  0.06843664  0.38343220  0.64382116     0.38200
H443        H  0.00378022  0.32511248  0.72082188     0.33700
H444        H  0.98200559  0.33848045  0.70460727     0.30400
H445        H  0.95624794  0.37929415  0.63422168     0.33700
H446        H  0.97375846  0.37754294  0.65882644     0.30400
H447        H  0.93965622  0.26847888  0.66556353     0.38300
H448        H  0.96823899  0.26122172  0.65885958     0.33700
C449        C  0.12229856  0.64897299  0.44896507    -0.20000
C450        C  0.14102658  0.63300093  0.45573376     0.36200
C451        C  0.14411803  0.62701456  0.48016516    -0.26000
C452        C  0.12892892  0.63645011  0.49811906     0.02600
C453        C  0.10975446  0.65181392  0.49130508     0.27400
C454        C  0.10680872  0.65808756  0.46688391    -0.25100
N455        N  0.15746298  0.62359499  0.43798574    -0.82500
H456        H  0.15914200  0.61563245  0.48534379     0.13300
C457        C  0.13461557  0.63150087  0.52397919     0.02600
N458        N  0.09341179  0.66105139  0.50921816    -0.81100
H459        H  0.09229292  0.67016621  0.46181706     0.18100
C460        C  0.13731888  0.65096228  0.53999376    -0.25900
C461        C  0.14474565  0.64737737  0.56397329     0.36100
C462        C  0.15020299  0.62388072  0.57195877    -0.19900
C463        C  0.14740456  0.60437594  0.55613161    -0.25200
C464        C  0.13921627  0.60786680  0.53235985     0.27500
H465        H  0.13436145  0.66914869  0.53354454     0.13200
N466        N  0.14817547  0.66764022  0.57978066    -0.82500
H467        H  0.15165758  0.58636071  0.56237736     0.18100
N468        N  0.13573313  0.58754918  0.51664995    -0.81100
H469        H  0.14456111  0.68377088  0.57073394     0.33700
H470        H  0.13538679  0.66638276  0.59356942     0.38200
H471        H  0.14004699  0.57148925  0.52551828     0.33700
H472        H  0.11736168  0.58670616  0.51248154     0.30400
H473        H  0.08041952  0.67219959  0.50129634     0.33700
H474        H  0.08418118  0.64639005  0.51658714     0.30400
H475        H  0.16753670  0.63805513  0.43134684     0.38300
H476        H  0.16978273  0.61169109  0.44587962     0.33700
C477        C  0.11987105  0.43084625  0.68157296    -0.20000
C478        C  0.11953144  0.45074005  0.69755773     0.36200
C479        C  0.12158670  0.47419011  0.68829651    -0.26000
C480        C  0.12388967  0.47835728  0.66346601     0.02600
C481        C  0.12252963  0.45869233  0.64736223     0.27400
C482        C  0.12075628  0.43515417  0.65657912    -0.25100
N483        N  0.11821586  0.44715525  0.72319918    -0.82500
H484        H  0.12287482  0.48923043  0.70069434     0.13300
C485        C  0.13117276  0.50279141  0.65517410     0.02600
N486        N  0.12345588  0.46271083  0.62176228    -0.81100
H487        H  0.12034335  0.42007714  0.64415799     0.18100
C488        C  0.15250443  0.50503658  0.64181538    -0.25900
C489        C  0.16233144  0.52767175  0.63637917     0.36100
C490        C  0.15081175  0.54884053  0.64501770    -0.19900
C491        C  0.12888464  0.54654677  0.65764664    -0.25200
C492        C  0.11890381  0.52379302  0.66269031     0.27500
H493        H  0.16208600  0.48891913  0.63627964     0.13200
N494        N  0.18426226  0.52900452  0.62258898    -0.82500
H495        H  0.11966742  0.56253399  0.66407704     0.18100
N496        N  0.09661148  0.52189737  0.67579865    -0.81100
H497        H  0.19090963  0.51178249  0.61872469     0.33700
H498        H  0.17997779  0.53683477  0.60598399     0.38200
H499        H  0.08998433  0.53898571  0.68024227     0.33700
H500        H  0.08392897  0.51400140  0.66430930     0.30400
H501        H  0.12239264  0.44638005  0.61240687     0.33700
H502        H  0.10815547  0.47268498  0.61702946     0.30400
H503        H  0.13431575  0.43893167  0.72860312     0.38300
H504        H  0.11734088  0.46366821  0.73225614     0.33700
C505        C  0.87044562  0.19559051  0.80554717    -0.20000
C506        C  0.89075590  0.20903009  0.79823061     0.36200
C507        C  0.89082075  0.21990018  0.77541472    -0.26000
C508        C  0.87099387  0.21770844  0.75988754     0.02600
C509        C  0.85074711  0.20414625  0.76711753     0.27400
C510        C  0.85080994  0.19296320  0.78981634    -0.25100
N511        N  0.91133545  0.21131368  0.81384808    -0.82500
H512        H  0.90646582  0.23003511  0.76960440     0.13300
C513        C  0.87181899  0.22964087  0.73604833     0.02600
N514        N  0.83009078  0.20216637  0.75156281    -0.81100
H515        H  0.83517258  0.18278223  0.79556606     0.18100
C516        C  0.86930130  0.21567347  0.71512449    -0.25900
C517        C  0.86994138  0.22630900  0.69217763     0.36100
C518        C  0.87347885  0.25144799  0.69021417    -0.19900
C519        C  0.87615400  0.26534329  0.71119809    -0.25200
C520        C  0.87535369  0.25471521  0.73410537     0.27500
H521        H  0.86675615  0.19638666  0.71675442     0.13200
N522        N  0.86654393  0.21174155  0.67100180    -0.82500
H523        H  0.87892733  0.28460958  0.70971826     0.18100
N524        N  0.87795093  0.26927874  0.75540611    -0.81100
H525        H  0.86443796  0.19361749  0.67565995     0.33700
H526        H  0.85033200  0.21711893  0.66302508     0.38200
H527        H  0.88067797  0.28734113  0.75082183     0.33700
H528        H  0.86166392  0.26853179  0.76488141     0.30400
H529        H  0.81675878  0.19153514  0.75956617     0.33700
H530        H  0.82272942  0.21941377  0.74959419     0.30400
H531        H  0.91876500  0.19412215  0.81606691     0.38300
H532        H  0.92466336  0.22190270  0.80578149     0.33700
C533        C  0.82597815  0.11482697  0.06065153    -0.20000
C534        C  0.85056267  0.12020671  0.05623041     0.36200
C535        C  0.85837498  0.12408970  0.03236818    -0.26000
C536        C  0.84224204  0.12260127  0.01290946     0.02600
C537        C  0.81793385  0.11670324  0.01724839     0.27400
C538        C  0.81016252  0.11267007  0.04093357    -0.25100
N539        N  0.86748786  0.12179676  0.07580635    -0.82500
H540        H  0.87709416  0.12847618  0.02888856     0.13300
C541        C  0.85041343  0.12861558  0.98814469     0.02600
N542        N  0.80102569  0.11554922  0.99760391    -0.81100
H543        H  0.79131375  0.10857799  0.04398138     0.18100
C544        C  0.84713310  0.11186035  0.96945658    -0.25900
C545        C  0.85159754  0.11804486  0.94526518     0.36100
C546        C  0.85986787  0.14151380  0.93970297    -0.19900
C547        C  0.86427804  0.15777733  0.95870769    -0.25200
C548        C  0.85935164  0.15171673  0.98274644     0.27500
H549        H  0.84042204  0.09404960  0.97376751     0.13200
N550        N  0.84729814  0.10071374  0.92647572    -0.82500
H551        H  0.87064002  0.17579412  0.95479745     0.18100
N552        N  0.86248168  0.16927380  0.00158246    -0.81100
H553        H  0.86397686  0.09643991  0.91875827     0.33700
H554        H  0.84048315  0.08468745  0.93363842     0.38200
H555        H  0.86929709  0.18538011  0.99460612     0.33700
H556        H  0.84542816  0.17327135  0.00860239     0.30400
H557        H  0.78386714  0.11081068  0.00380162     0.33700
H558        H  0.79948912  0.13286606  0.99034218     0.30400
H559        H  0.86913293  0.10458616  0.08329662     0.38300
H560        H  0.88460889  0.12646902  0.06944583     0.33700
C561        C  0.12065113  0.29339983  0.72968486    -0.20000
C562        C  0.12168836  0.27316733  0.71413407     0.36200
C563        C  0.12202962  0.24980846  0.72402810    -0.26000
C564        C  0.12096282  0.24613822  0.74904296     0.02600
C565        C  0.12000233  0.26625818  0.76456856     0.27400
C566        C  0.11993582  0.28959696  0.75475373    -0.25100
N567        N  0.12197826  0.27628271  0.68839949    -0.82500
H568        H  0.12293970  0.23431032  0.71215915     0.13300
C569        C  0.12062839  0.22114596  0.75877201     0.02600
N570        N  0.11884722  0.26289715  0.79025435    -0.81100
H571        H  0.11932574  0.30493740  0.76683764     0.18100
C572        C  0.13863063  0.21388036  0.77501418    -0.25900
C573        C  0.13875477  0.19055997  0.78490393     0.36100
C574        C  0.12026076  0.17421144  0.77864897    -0.19900
C575        C  0.10254658  0.18131124  0.76198944    -0.25200
C576        C  0.10245803  0.20464692  0.75208408     0.27500
H577        H  0.15282250  0.22641921  0.77975817     0.13200
N578        N  0.15792328  0.18325143  0.80078581    -0.82500
H579        H  0.08846192  0.16874053  0.75701672     0.18100
N580        N  0.08383195  0.21176759  0.73550107    -0.81100
H581        H  0.17001977  0.19741212  0.80358431     0.33700
H582        H  0.16761467  0.16956859  0.79211664     0.38200
H583        H  0.07193636  0.19751254  0.73234429     0.33700
H584        H  0.07378559  0.22546870  0.74370984     0.30400
H585        H  0.11843113  0.27950879  0.79915769     0.33700
H586        H  0.10253555  0.25431317  0.79415109     0.30400
H587        H  0.10537998  0.28374807  0.68341325     0.38300
H588        H  0.12319628  0.25962060  0.67965967     0.33700
C589        C  0.05244551  0.11374449  0.82931675    -0.20000
C590        C  0.04470012  0.13526721  0.84045887     0.36200
C591        C  0.02052328  0.13760423  0.84743720    -0.26000
C592        C  0.00413838  0.11857415  0.84454205     0.02600
C593        C  0.01204126  0.09679120  0.83396691     0.27400
C594        C  0.03606410  0.09476993  0.82604621    -0.25100
N595        N  0.06109022  0.15506957  0.84370076    -0.82500
H596        H  0.01433353  0.15453430  0.85499290     0.13300
C597        C  0.97858781  0.12255758  0.85158399     0.02600
N598        N  0.99571061  0.07686186  0.83141065    -0.81100
H599        H  0.04216727  0.07819844  0.81765551     0.18100
C600        C  0.96028849  0.11890445  0.83445989    -0.25900
C601        C  0.93640003  0.12596744  0.83917161     0.36100
C602        C  0.93083018  0.13696697  0.86144423    -0.19900
C603        C  0.94888261  0.13976450  0.87889153    -0.25200
C604        C  0.97264733  0.13236846  0.87434039     0.27500
H605        H  0.96487869  0.11170245  0.81687912     0.13200
N606        N  0.91811910  0.12317147  0.82098543    -0.82500
H607        H  0.94444685  0.14803837  0.89604698     0.18100
N608        N  0.99090526  0.13521986  0.89253318    -0.81100
H609        H  0.92519279  0.11461430  0.80572914     0.33700
H610        H  0.91278778  0.14040525  0.81550540     0.38200
H611        H  0.98361902  0.14293353  0.90813454     0.33700
H612        H  0.99695501  0.11801332  0.89728314     0.30400
H613        H  0.00436162  0.06221725  0.82324403     0.33700
H614        H  0.99080267  0.07129647  0.84873637     0.30400
H615        H  0.07334849  0.15016038  0.85715182     0.38300
H616        H  0.05196943  0.17020566  0.85031146     0.33700
C617        C  0.15307528  0.92243600  0.87315463    -0.20000
C618        C  0.16133248  0.94331502  0.88521206     0.36200
C619        C  0.15279214  0.96599054  0.87796044    -0.26000
C620        C  0.13605303  0.96817589  0.85917087     0.02600
C621        C  0.12654510  0.94735108  0.84824824     0.27400
C622        C  0.13511605  0.92464307  0.85538114    -0.25100
N623        N  0.17866824  0.94150242  0.90441493    -0.82500
H624        H  0.15991320  0.98212393  0.88635007     0.13300
C625        C  0.13068578  0.99239355  0.84949785     0.02600
N626        N  0.10876397  0.94946550  0.82949272    -0.81100
H627        H  0.12850623  0.90871121  0.84623356     0.18100
C628        C  0.13795117  0.99776517  0.82590296    -0.25900
C629        C  0.13543994  0.02109623  0.81655703     0.36100
C630        C  0.12505346  0.03928545  0.83104354    -0.19900
C631        C  0.11766012  0.03387670  0.85463890    -0.25200
C632        C  0.12028739  0.01049488  0.86399898     0.27500
H633        H  0.14640555  0.98385487  0.81505603     0.13200
N634        N  0.14425436  0.02660492  0.79279761    -0.82500
H635        H  0.10974217  0.04790917  0.86571981     0.18100
N636        N  0.11259790  0.00503018  0.88813594    -0.81100
H637        H  0.15139415  0.01119740  0.78457784     0.33700
H638        H  0.15854968  0.03872969  0.79471357     0.38200
H639        H  0.10538091  0.02035841  0.89643246     0.33700
H640        H  0.09860715  0.99247937  0.88692336     0.30400
H641        H  0.10376073  0.93244226  0.82315826     0.33700
H642        H  0.09332130  0.95716524  0.83713573     0.30400
H643        H  0.17047029  0.93217541  0.91858481     0.38300
H644        H  0.18304890  0.95857182  0.91108254     0.33700
C645        C  0.86596242  0.79031587  0.22690457    -0.20000
C646        C  0.84750978  0.77306557  0.22380106     0.36200
C647        C  0.84979371  0.75047557  0.23494095    -0.26000
C648        C  0.87006361  0.74495003  0.24896617     0.02600
C649        C  0.88855574  0.76198524  0.25192611     0.27400
C650        C  0.88627997  0.78459831  0.24092555    -0.25100
N651        N  0.82637692  0.77867393  0.20983652    -0.82500
H652        H  0.83568157  0.73714477  0.23286073     0.13300
C653        C  0.87156746  0.72121534  0.26065419     0.02600
N654        N  0.90950827  0.75619074  0.26607197    -0.81100
H655        H  0.90048617  0.79779390  0.24320758     0.18100
C656        C  0.88635563  0.70344660  0.25053315    -0.25900
C657        C  0.88755096  0.68029161  0.26062788     0.36100
C658        C  0.87348940  0.67492986  0.28124755    -0.19900
C659        C  0.85923223  0.69316041  0.29169113    -0.25200
C660        C  0.85811463  0.71626298  0.28154507     0.27500
H661        H  0.89679984  0.70765124  0.23456123     0.13200
N662        N  0.90292697  0.66231069  0.24997741    -0.82500
H663        H  0.84838477  0.68923467  0.30745344     0.18100
N664        N  0.84311140  0.73463422  0.29207848    -0.81100
H665        H  0.91159840  0.66911648  0.23469059     0.33700
H666        H  0.91646575  0.65832324  0.26248004     0.38200
H667        H  0.83414498  0.72799421  0.30726651     0.33700
H668        H  0.85441402  0.74843002  0.29814039     0.30400
H669        H  0.92158426  0.77063952  0.26623454     0.33700
H670        H  0.90386105  0.75370386  0.28388637     0.30400
H671        H  0.81706612  0.79242302  0.21880635     0.38300
H672        H  0.81473939  0.76388292  0.20916756     0.33700
C673        C  0.85381437  0.92387441  0.17289645    -0.20000
C674        C  0.85140006  0.94354187  0.18901047     0.36200
C675        C  0.84655865  0.96654065  0.17980357    -0.26000
C676        C  0.84360373  0.97018194  0.15504974     0.02600
C677        C  0.84615066  0.95082210  0.13887473     0.27400
C678        C  0.85136447  0.92778694  0.14796593    -0.25100
N679        N  0.85286892  0.94001603  0.21466444    -0.82500
H680        H  0.84420005  0.98161791  0.19203006     0.13300
C681        C  0.83575837  0.99409271  0.14679556     0.02600
N682        N  0.84323262  0.95463656  0.11339858    -0.81100
H683        H  0.85320990  0.91278605  0.13557809     0.18100
C684        C  0.85301121  0.01123616  0.14014616    -0.25900
C685        C  0.84605902  0.03491623  0.13442336     0.36100
C686        C  0.82137474  0.04125160  0.13538295    -0.19900
C687        C  0.80417731  0.02377212  0.14150304    -0.25200
C688        C  0.81115906  0.00027447  0.14742535     0.27500
H689        H  0.87191093  0.00621224  0.13989418     0.13200
N690        N  0.86388268  0.05247612  0.12775789    -0.82500
H691        H  0.78527157  0.02868647  0.14250785     0.18100
N692        N  0.79351907  0.98285224  0.15492939    -0.81100
H693        H  0.88115609  0.04488109  0.12813134     0.33700
H694        H  0.86056324  0.05743760  0.10987346     0.38200
H695        H  0.77625258  0.99046962  0.15499728     0.33700
H696        H  0.79327806  0.96906518  0.14207952     0.30400
H697        H  0.84592653  0.93853923  0.10395386     0.33700
H698        H  0.82532954  0.95973447  0.11034836     0.30400
H699        H  0.83810972  0.92948445  0.21976474     0.38300
H700        H  0.85107477  0.95640945  0.22380906     0.33700
C701        C  0.11304200  0.69764290  0.31235222    -0.20000
C702        C  0.12181051  0.72085789  0.30629203     0.36200
C703        C  0.11842225  0.72957896  0.28283192    -0.26000
C704        C  0.10662590  0.71586104  0.26513550     0.02600
C705        C  0.09846176  0.69249104  0.27099655     0.27400
C706        C  0.10206729  0.68352459  0.29445225    -0.25100
N707        N  0.13458679  0.73595111  0.32311218    -0.82500
H708        H  0.12541763  0.74722494  0.27828778     0.13300
C709        C  0.10355704  0.72611578  0.24048661     0.02600
N710        N  0.08601478  0.67820519  0.25331295    -0.81100
H711        H  0.09544084  0.66575460  0.29906947     0.18100
C712        C  0.11160703  0.71292068  0.22040069    -0.25900
C713        C  0.11046837  0.72260168  0.19701819     0.36100
C714        C  0.10129481  0.74612195  0.19368397    -0.19900
C715        C  0.09298330  0.75922317  0.21366128    -0.25200
C716        C  0.09369042  0.74936104  0.23697897     0.27500
H717        H  0.11957651  0.69528467  0.22306639     0.13200
N718        N  0.11953427  0.70902611  0.17683490    -0.82500
H719        H  0.08594794  0.77726659  0.21104017     0.18100
N720        N  0.08452564  0.76289266  0.25712800    -0.81100
H721        H  0.12541111  0.69198825  0.18235722     0.33700
H722        H  0.13472376  0.71800804  0.17022389     0.38200
H723        H  0.07805315  0.77968236  0.25150667     0.33700
H724        H  0.06975278  0.75349038  0.26406785     0.30400
H725        H  0.08122638  0.66146752  0.26048696     0.33700
H726        H  0.06992017  0.68710469  0.24909485     0.30400
H727        H  0.13796255  0.72711985  0.33936205     0.38300
H728        H  0.15158559  0.73948815  0.31579896     0.33700
C729        C  0.12266222  0.80714202  0.06424926    -0.20000
C730        C  0.12184553  0.83224901  0.05989886     0.36200
C731        C  0.12870680  0.84111759  0.03715826    -0.26000
C732        C  0.13622193  0.82539227  0.01887119     0.02600
C733        C  0.13706455  0.80041780  0.02313666     0.27400
C734        C  0.13009556  0.79152385  0.04573118    -0.25100
N735        N  0.11389940  0.84858019  0.07842154    -0.82500
H736        H  0.12823075  0.86031746  0.03363624     0.13300
C737        C  0.14381275  0.83515836  0.99536265     0.02600
N738        N  0.14567761  0.78429450  0.00470937    -0.81100
H739        H  0.13105987  0.77231304  0.04908426     0.18100
C740        C  0.16804925  0.84116278  0.99196274    -0.25900
C741        C  0.17662720  0.84830072  0.96923965     0.36100
C742        C  0.16050650  0.84898090  0.94937181    -0.19900
C743        C  0.13597358  0.84377358  0.95322179    -0.25200
C744        C  0.12745568  0.83694980  0.97606636     0.27500
H745        H  0.18040143  0.83979450  0.00705479     0.13200
N746        N  0.20177934  0.85383548  0.96622563    -0.82500
H747        H  0.12343693  0.84459867  0.93825773     0.18100
N748        N  0.10232495  0.83172593  0.97975798    -0.81100
H749        H  0.21130551  0.85059017  0.98217448     0.33700
H750        H  0.20306848  0.87236160  0.96309032     0.38200
H751        H  0.09262472  0.83424652  0.96378599     0.33700
H752        H  0.10078300  0.81348246  0.98412233     0.30400
H753        H  0.14576033  0.76652464  0.01095897     0.33700
H754        H  0.13348226  0.78486209  0.99035640     0.30400
H755        H  0.09575047  0.84485506  0.08192009     0.38300
H756        H  0.11461698  0.86638951  0.07232590     0.33700
C757        C  0.04056223  0.80299379  0.12887082    -0.20000
C758        C  0.01997465  0.78849828  0.12453899     0.36200
C759        C  0.99684679  0.79797705  0.12922598    -0.26000
C760        C  0.99389631  0.82161748  0.13769780     0.02600
C761        C  0.01418796  0.83662407  0.14010908     0.27400
C762        C  0.03721614  0.82719488  0.13571350    -0.25100
N763        N  0.02250501  0.76401751  0.11642728    -0.82500
H764        H  0.98113198  0.78655061  0.12732654     0.13300
C765        C  0.97013120  0.82955819  0.14704780     0.02600
N766        N  0.01131350  0.86119687  0.14788064    -0.81100
H767        H  0.05270581  0.83875126  0.13841767     0.18100
C768        C  0.96860777  0.83617237  0.17136382    -0.25900
C769        C  0.94674344  0.84330789  0.18165507     0.36100
C770        C  0.92559759  0.84391696  0.16742081    -0.19900
C771        C  0.92711243  0.83720728  0.14294318    -0.25200
C772        C  0.94922777  0.83007354  0.13259480     0.27500
H773        H  0.98455864  0.83539216  0.18265308     0.13200
N774        N  0.94613888  0.84919736  0.20681219    -0.82500
H775        H  0.91102958  0.83745805  0.13185162     0.18100
N776        N  0.95056383  0.82338281  0.10758327    -0.81100
H777        H  0.95816519  0.86337234  0.20983731     0.33700
H778        H  0.95219903  0.83422292  0.21652894     0.38200
H779        H  0.93356806  0.82462962  0.09950056     0.33700
H780        H  0.96160332  0.83593125  0.09890692     0.30400
H781        H  0.02804270  0.86977418  0.14913242     0.33700
H782        H  0.00152353  0.87026399  0.13456002     0.30400
H783        H  0.02925537  0.76456868  0.09882915     0.38300
H784        H  0.00566230  0.75563733  0.11532344     0.33700
C785        C  0.29718456  0.75622852  0.39413250    -0.20000
C786        C  0.27639698  0.77060183  0.39026077     0.36200
C787        C  0.25358976  0.75972967  0.39055550    -0.26000
C788        C  0.25106157  0.73511822  0.39544664     0.02600
C789        C  0.27153055  0.72111244  0.40090372     0.27400
C790        C  0.29439386  0.73172971  0.39993661    -0.25100
N791        N  0.27839952  0.79605739  0.38589551    -0.82500
H792        H  0.23770790  0.77039779  0.38649871     0.13300
C793        C  0.22707315  0.72387674  0.39320800     0.02600
N794        N  0.26896709  0.69608741  0.40709802    -0.81100
H795        H  0.31011338  0.72061996  0.40333644     0.18100
C796        C  0.22415641  0.70491901  0.37677103    -0.25900
C797        C  0.20167261  0.69398743  0.37341411     0.36100
C798        C  0.18165319  0.70230157  0.38687555    -0.19900
C799        C  0.18459686  0.72148541  0.40315935    -0.25200
C800        C  0.20716697  0.73227571  0.40658160     0.27500
H801        H  0.23948559  0.69889807  0.36621328     0.13200
N802        N  0.19910787  0.67483790  0.35611054    -0.82500
H803        H  0.16932502  0.72783437  0.41359343     0.18100
N804        N  0.21002571  0.75153486  0.42369916    -0.81100
H805        H  0.21572416  0.67064145  0.34820577     0.33700
H806        H  0.18800479  0.68116481  0.34224076     0.38200
H807        H  0.19355832  0.75564124  0.43194731     0.33700
H808        H  0.22152964  0.74539009  0.43731979     0.30400
H809        H  0.28580783  0.68827594  0.41047603     0.33700
H810        H  0.25925719  0.69522075  0.42324040     0.30400
H811        H  0.28505567  0.80396549  0.40166835     0.38300
H812        H  0.26141742  0.80371741  0.38288238     0.33700
C813        C  0.68187360  0.85960131  0.28847081    -0.20000
C814        C  0.68576264  0.87006739  0.26546803     0.36200
C815        C  0.70911286  0.87059124  0.25587640    -0.26000
C816        C  0.72874455  0.86123106  0.26864083     0.02600
C817        C  0.72525597  0.85152876  0.29182257     0.27400
C818        C  0.70183894  0.85081813  0.30153007    -0.25100
N819        N  0.66614365  0.88011704  0.25177958    -0.82500
H820        H  0.71210087  0.87833722  0.23818803     0.13300
C821        C  0.75259003  0.86102780  0.25674175     0.02600
N822        N  0.74539104  0.84208908  0.30517586    -0.81100
H823        H  0.69917977  0.84296055  0.31920345     0.18100
C824        C  0.77154696  0.87468713  0.26630848    -0.25900
C825        C  0.79389845  0.87606275  0.25436832     0.36100
C826        C  0.79737076  0.86300832  0.23266351    -0.19900
C827        C  0.77815913  0.84949529  0.22319385    -0.25200
C828        C  0.75588878  0.84833423  0.23500023     0.27500
H829        H  0.76865911  0.88474858  0.28282155     0.13200
N830        N  0.81279163  0.89092638  0.26402076    -0.82500
H831        H  0.78059624  0.83932805  0.20668465     0.18100
N832        N  0.73654973  0.83421717  0.22506717    -0.81100
H833        H  0.80734891  0.89894441  0.28020932     0.33700
H834        H  0.81566168  0.90497949  0.25181615     0.38200
H835        H  0.74179071  0.82619189  0.20881872     0.33700
H836        H  0.73298393  0.82019815  0.23712825     0.30400
H837        H  0.73977121  0.83572865  0.32200452     0.33700
H838        H  0.75208486  0.82720959  0.29570798     0.30400
H839        H  0.66022463  0.89553882  0.26089050     0.38300
H840        H  0.67202987  0.88590668  0.23483376     0.33700
C841        C  0.54813166  0.84673478  0.34372468    -0.20000
C842        C  0.52729948  0.85327822  0.33036323     0.36200
C843        C  0.50449887  0.84648947  0.33884979    -0.26000
C844        C  0.50199799  0.83370936  0.36041117     0.02600
C845        C  0.52242210  0.82816581  0.37436300     0.27400
C846        C  0.54530963  0.83473942  0.36590527    -0.25100
N847        N  0.52923081  0.86629019  0.30803051    -0.82500
H848        H  0.48856311  0.85065930  0.32830835     0.13300
C849        C  0.47795016  0.82481793  0.36719867     0.02600
N850        N  0.51979369  0.81546747  0.39679814    -0.81100
H851        H  0.56102271  0.82981986  0.37642476     0.18100
C852        C  0.47384801  0.79994471  0.36700660    -0.25900
C853        C  0.45078087  0.79064332  0.37129755     0.36100
C854        C  0.43160218  0.80667633  0.37643643    -0.19900
C855        C  0.43586177  0.83161746  0.37679495    -0.25200
C856        C  0.45891871  0.84086043  0.37219828     0.27500
H857        H  0.48857967  0.78782118  0.36266409     0.13200
N858        N  0.44665238  0.76511645  0.36958850    -0.82500
H859        H  0.42117411  0.84392923  0.38070014     0.18100
N860        N  0.46313022  0.86641160  0.37242722    -0.81100
H861        H  0.46273508  0.75595296  0.36589433     0.33700
H862        H  0.43531291  0.76217811  0.35480604     0.38200
H863        H  0.44718224  0.87574626  0.37626533     0.33700
H864        H  0.47507967  0.87007717  0.38654314     0.30400
H865        H  0.53662030  0.81260235  0.40482560     0.33700
H866        H  0.51001411  0.82656332  0.40851776     0.30400
H867        H  0.53563488  0.88352355  0.31212478     0.38300
H868        H  0.51226579  0.86868136  0.30013284     0.33700
C869        C  0.27353849  0.86397282  0.70168842    -0.20000
C870        C  0.25712149  0.88291432  0.70661730     0.36200
C871        C  0.24446157  0.88305134  0.72857752    -0.26000
C872        C  0.24798610  0.86477083  0.74558569     0.02600
C873        C  0.26438709  0.84597286  0.74083924     0.27400
C874        C  0.27709049  0.84580092  0.71895246    -0.25100
N875        N  0.25355672  0.90203815  0.68949636    -0.82500
H876        H  0.23191898  0.89751937  0.73256788     0.13300
C877        C  0.23496781  0.86579761  0.76874952     0.02600
N878        N  0.26773122  0.82695522  0.75812718    -0.81100
H879        H  0.28944703  0.83112779  0.71515465     0.18100
C880        C  0.21298012  0.85370613  0.77117447    -0.25900
C881        C  0.20090392  0.85293298  0.79348059     0.36100
C882        C  0.21147447  0.86416368  0.81390115    -0.19900
C883        C  0.23316394  0.87702048  0.81092359    -0.25200
C884        C  0.24497684  0.87794148  0.78858441     0.27500
H885        H  0.20537588  0.84464022  0.75562170     0.13200
N886        N  0.17831162  0.84040616  0.79539800    -0.82500
H887        H  0.24128298  0.88608882  0.82619229     0.18100
N888        N  0.26718898  0.89103328  0.78594938    -0.81100
H889        H  0.17382436  0.83222062  0.77901247     0.33700
H890        H  0.16494419  0.85332590  0.79864638     0.38200
H891        H  0.27197558  0.89929417  0.80220795     0.33700
H892        H  0.28083588  0.87861112  0.78203450     0.30400
H893        H  0.28010637  0.81424593  0.75168747     0.33700
H894        H  0.27537503  0.83448720  0.77361837     0.30400
H895        H  0.26981892  0.91144540  0.68806472     0.38300
H896        H  0.24072214  0.91434685  0.69581969     0.33700
C897        C  0.21117437  0.68037197  0.62907468    -0.20000
C898        C  0.23231583  0.68392087  0.61513006     0.36200
C899        C  0.24334833  0.70666910  0.61488509    -0.26000
C900        C  0.23351609  0.72606876  0.62770617     0.02600
C901        C  0.21193475  0.72299168  0.64071206     0.27400
C902        C  0.20096142  0.70020116  0.64124550    -0.25100
N903        N  0.24258720  0.66455269  0.60125441    -0.82500
H904        H  0.25979133  0.70934738  0.60466303     0.13300
C905        C  0.24665134  0.74924402  0.62815452     0.02600
N906        N  0.20157556  0.74289310  0.65374503    -0.81100
H907        H  0.18467299  0.69784151  0.65176438     0.18100
C908        C  0.23620704  0.76973903  0.61776064    -0.25900
C909        C  0.24792126  0.79219575  0.61854802     0.36100
C910        C  0.27086098  0.79403327  0.62979264    -0.19900
C911        C  0.28135721  0.77314657  0.63971321    -0.25200
C912        C  0.26942610  0.75090256  0.63920014     0.27500
H913        H  0.21868652  0.76820809  0.60923085     0.13200
N914        N  0.23647573  0.81293193  0.60800579    -0.82500
H915        H  0.29884060  0.77415338  0.64836246     0.18100
N916        N  0.28017385  0.73000662  0.65017547    -0.81100
H917        H  0.22059847  0.80801321  0.59910656     0.33700
H918        H  0.23120384  0.82425549  0.62214184     0.38200
H919        H  0.29706914  0.73419032  0.65741793     0.33700
H920        H  0.26922397  0.72494245  0.66465936     0.30400
H921        H  0.18559374  0.73768843  0.66227472     0.33700
H922        H  0.21365915  0.74768467  0.66740103     0.30400
H923        H  0.23032437  0.66032386  0.58756755     0.38300
H924        H  0.25842588  0.67008194  0.59266034     0.33700
C925        C  0.33718591  0.84642397  0.57281867    -0.20000
C926        C  0.33354789  0.86269453  0.55360504     0.36200
C927        C  0.34000135  0.85577974  0.53017258    -0.26000
C928        C  0.34977050  0.83291869  0.52557072     0.02600
C929        C  0.35478870  0.81722083  0.54494732     0.27400
C930        C  0.34868457  0.82429460  0.56847671    -0.25100
N931        N  0.32299063  0.88599432  0.55791801    -0.82500
H932        H  0.33679572  0.86800417  0.51527553     0.13300
C933        C  0.35325776  0.82523707  0.50025964     0.02600
N934        N  0.36510382  0.79382554  0.54056372    -0.81100
H935        H  0.35155158  0.81185898  0.58326240     0.18100
C936        C  0.37601696  0.81717259  0.49261620    -0.25900
C937        C  0.37956951  0.80896516  0.46894158     0.36100
C938        C  0.36011321  0.80948214  0.45263108    -0.19900
C939        C  0.33756604  0.81812370  0.46001017    -0.25200
C940        C  0.33376347  0.82554114  0.48385268     0.27500
H941        H  0.39096410  0.81716850  0.50520519     0.13200
N942        N  0.40278274  0.80020269  0.46133945    -0.82500
H943        H  0.32263639  0.81809569  0.44737884     0.18100
N944        N  0.31007676  0.83275241  0.49165906    -0.81100
H945        H  0.41512393  0.80093680  0.47557901     0.33700
H946        H  0.40919597  0.81186066  0.44800381     0.38200
H947        H  0.29780972  0.83195410  0.47735748     0.33700
H948        H  0.30425200  0.82022457  0.50446303     0.30400
H949        H  0.36775843  0.78459218  0.55677948     0.33700
H950        H  0.35259059  0.78384384  0.53061906     0.30400
H951        H  0.33489817  0.89567043  0.56886005     0.38300
H952        H  0.32135989  0.89564427  0.54180782     0.33700
C953        C  0.31061493  0.09548154  0.74120347    -0.20000
C954        C  0.29176642  0.08732870  0.72621563     0.36200
C955        C  0.26798048  0.08767524  0.73489933    -0.26000
C956        C  0.26251547  0.09704095  0.75780615     0.02600
C957        C  0.28145302  0.10544926  0.77267029     0.27400
C958        C  0.30536127  0.10393948  0.76443687    -0.25100
N959        N  0.29684788  0.07880647  0.70224572    -0.82500
H960        H  0.25358208  0.08078644  0.72364581     0.13300
C961        C  0.23693011  0.09807577  0.76590356     0.02600
N962        N  0.27628743  0.11621331  0.79570606    -0.81100
H963        H  0.31986858  0.11058327  0.77571781     0.18100
C964        C  0.23077631  0.08886025  0.78865676    -0.25900
C965        C  0.20710131  0.09047502  0.79749064     0.36100
C966        C  0.18890236  0.10038490  0.78268277    -0.19900
C967        C  0.19478547  0.10872607  0.75957389    -0.25200
C968        C  0.21870549  0.10825705  0.75124022     0.27500
H969        H  0.24460341  0.08058351  0.79971428     0.13200
N970        N  0.20142731  0.08148375  0.82113842    -0.82500
H971        H  0.18078590  0.11649012  0.74834521     0.18100
N972        N  0.22462195  0.11858113  0.72821564    -0.81100
H973        H  0.21646138  0.07302335  0.82877606     0.33700
H974        H  0.19774310  0.09632922  0.83215421     0.38200
H975        H  0.20915046  0.12522293  0.71970529     0.33700
H976        H  0.23583470  0.13338162  0.73135783     0.30400
H977        H  0.29220652  0.12148292  0.80432089     0.33700
H978        H  0.26636609  0.13194219  0.79255790     0.30400
H979        H  0.30737018  0.06322880  0.70380437     0.38300
H980        H  0.28093895  0.07379517  0.69345897     0.33700
C981        C  0.37638531  0.03477730  0.69115125    -0.20000
C982        C  0.37116671  0.01507023  0.70643311     0.36200
C983        C  0.36799879  0.99203439  0.69638718    -0.26000
C984        C  0.36968586  0.98821612  0.67142416     0.02600
C985        C  0.37567859  0.00769401  0.65623678     0.27400
C986        C  0.37881464  0.03077820  0.66623346    -0.25100
N987        N  0.36796178  0.01863369  0.73192615    -0.82500
H988        H  0.36296534  0.97716826  0.70799005     0.13300
C989        C  0.36237704  0.96442404  0.66145218     0.02600
N990        N  0.37822440  0.00397920  0.63069960    -0.81100
H991        H  0.38300637  0.04577957  0.65447230     0.18100
C992        C  0.34349472  0.96356605  0.64466575    -0.25900
C993        C  0.33355699  0.94155361  0.63717720     0.36100
C994        C  0.34202507  0.91978516  0.64750423    -0.19900
C995        C  0.36198778  0.92060758  0.66318402    -0.25200
C996        C  0.37237801  0.94268868  0.67007015     0.27500
H997        H  0.33590242  0.98025421  0.63792066     0.13200
N998        N  0.31465183  0.94138172  0.61942188    -0.82500
H999        H  0.36908922  0.90405109  0.67072171     0.18100
N1000       N  0.39271872  0.94319767  0.68614143    -0.81100
H1001       H  0.31027518  0.95892020  0.61408021     0.33700
H1002       H  0.32139211  0.93265858  0.60410782     0.38200
H1003       H  0.39789135  0.92570344  0.69088072     0.33700
H1004       H  0.40720878  0.95069453  0.67671270     0.30400
H1005       H  0.38251860  0.02013985  0.62203967     0.33700
H1006       H  0.39285166  0.99235188  0.62805843     0.30400
H1007       H  0.35256074  0.02928716  0.73430594     0.38300
H1008       H  0.36451517  0.00225665  0.74056490     0.33700
C1009       C  0.76303487  0.29309856  0.39303654    -0.20000
C1010       C  0.74004416  0.28762067  0.38371640     0.36200
C1011       C  0.73190634  0.26368774  0.38407717    -0.26000
C1012       C  0.74600567  0.24507881  0.39397694     0.02600
C1013       C  0.76892569  0.25071274  0.40369140     0.27400
C1014       C  0.77732249  0.27462382  0.40276561    -0.25100
N1015       N  0.72540021  0.30623192  0.37312111    -0.82500
H1016       H  0.71465941  0.25942759  0.37596294     0.13300
C1017       C  0.73674750  0.21982833  0.39288630     0.02600
N1018       N  0.78355153  0.23221424  0.41447437    -0.81100
H1019       H  0.79501867  0.27893921  0.40984616     0.18100
C1020       C  0.75142408  0.20144413  0.38335981    -0.25900
C1021       C  0.74264978  0.17786353  0.38032251     0.36100
C1022       C  0.71841775  0.17271658  0.38617091    -0.19900
C1023       C  0.70377149  0.19096745  0.39577791    -0.25200
C1024       C  0.71283085  0.21426550  0.39978892     0.27500
H1025       H  0.76963448  0.20561191  0.37767717     0.13200
N1026       N  0.75809386  0.15928542  0.37083826    -0.82500
H1027       H  0.68534716  0.18683025  0.40080712     0.18100
N1028       N  0.69790762  0.23224824  0.41107551    -0.81100
H1029       H  0.77544552  0.16595648  0.36773988     0.33700
H1030       H  0.75120162  0.15412354  0.35406283     0.38200
H1031       H  0.68083843  0.22529235  0.41499789     0.33700
H1032       H  0.70586485  0.23667720  0.42758564     0.30400
H1033       H  0.79990455  0.23933042  0.42057508     0.33700
H1034       H  0.77439675  0.22589871  0.42968506     0.30400
H1035       H  0.73436469  0.31248758  0.35776378     0.38300
H1036       H  0.70892355  0.29922859  0.36722909     0.33700
C1037       C  0.71609073  0.10020236  0.31178015    -0.20000
C1038       C  0.73769633  0.08755595  0.30637299     0.36200
C1039       C  0.74674098  0.08779523  0.28269796    -0.26000
C1040       C  0.73474520  0.10016703  0.26424335     0.02600
C1041       C  0.71294802  0.11222041  0.26931849     0.27400
C1042       C  0.70375601  0.11196556  0.29295236    -0.25100
N1043       N  0.75053498  0.07461255  0.32481359    -0.82500
H1044       H  0.76337530  0.07836307  0.27856450     0.13300
C1045       C  0.74578155  0.10106954  0.23988441     0.02600
N1046       N  0.70058092  0.12518340  0.25057559    -0.81100
H1047       H  0.68719948  0.12164144  0.29675993     0.18100
C1048       C  0.73385744  0.09047255  0.22030590    -0.25900
C1049       C  0.74395673  0.09083902  0.19701319     0.36100
C1050       C  0.76626239  0.10275023  0.19311594    -0.19900
C1051       C  0.77819206  0.11309566  0.21297482    -0.25200
C1052       C  0.76823385  0.11232084  0.23625171     0.27500
H1053       H  0.71676225  0.08153118  0.22333959     0.13200
N1054       N  0.73172468  0.07888996  0.17752657    -0.82500
H1055       H  0.79528874  0.12213442  0.21035544     0.18100
N1056       N  0.78071878  0.12312576  0.25624172    -0.81100
H1057       H  0.71535227  0.07162512  0.18338559     0.33700
H1058       H  0.74245370  0.06429062  0.17224076     0.38200
H1059       H  0.79712054  0.13050458  0.25062460     0.33700
H1060       H  0.77015892  0.13745422  0.26250442     0.30400
H1061       H  0.68477651  0.13305705  0.25724098     0.33700
H1062       H  0.71175072  0.13933085  0.24512845     0.30400
H1063       H  0.73973733  0.06011710  0.33005870     0.38300
H1064       H  0.76646288  0.06716063  0.31795752     0.33700
C1065       C  0.66359061  0.03916965  0.37225562    -0.20000
C1066       C  0.67944028  0.01994133  0.36657236     0.36200
C1067       C  0.66993394  0.99711380  0.36138796    -0.26000
C1068       C  0.64505410  0.99308191  0.36172470     0.02600
C1069       C  0.62919113  0.01186112  0.36809452     0.27400
C1070       C  0.63861281  0.03484455  0.37316199    -0.25100
N1071       N  0.70505779  0.02377337  0.36529373    -0.82500
H1072       H  0.68193721  0.98244895  0.35652906     0.13300
C1073       C  0.63606518  0.96910806  0.35463509     0.02600
N1074       N  0.60369386  0.00741728  0.36960354    -0.81100
H1075       H  0.62643830  0.04943295  0.37777926     0.18100
C1076       C  0.63420079  0.95102373  0.37209014    -0.25900
C1077       C  0.62776608  0.92739002  0.36565474     0.36100
C1078       C  0.62337470  0.92180362  0.34111347    -0.19900
C1079       C  0.62463296  0.94029062  0.32381809    -0.25200
C1080       C  0.63108220  0.96384903  0.33031980     0.27500
H1081       H  0.63816054  0.95533273  0.39073959     0.13200
N1082       N  0.62589052  0.90912204  0.38392139    -0.82500
H1083       H  0.62145213  0.93620821  0.30497681     0.18100
N1084       N  0.63357619  0.98223481  0.31223150    -0.81100
H1085       H  0.63014879  0.91616425  0.40088895     0.33700
H1086       H  0.60782793  0.90378962  0.38471908     0.38200
H1087       H  0.62982696  0.97527085  0.29511236     0.33700
H1088       H  0.62054686  0.99544421  0.31560183     0.30400
H1089       H  0.59454921  0.02302502  0.37495497     0.33700
H1090       H  0.59749942  0.00322646  0.35230826     0.30400
H1091       H  0.70829744  0.03535295  0.35079779     0.38300
H1092       H  0.71409057  0.00768221  0.36137383     0.33700
C1093       C  0.69047155  0.20522424  0.62144142    -0.20000
C1094       C  0.70984951  0.19289570  0.61053327     0.36200
C1095       C  0.73234345  0.20431553  0.60867483    -0.26000
C1096       C  0.73589390  0.22764390  0.61780046     0.02600
C1097       C  0.71637268  0.24015599  0.62833419     0.27400
C1098       C  0.69371091  0.22891858  0.62969571    -0.25100
N1099       N  0.70655601  0.16891233  0.60129832    -0.82500
H1100       H  0.74732775  0.19488392  0.60035617     0.13300
C1101       C  0.76050493  0.23805969  0.61735638     0.02600
N1102       N  0.71982379  0.26385961  0.63823000    -0.81100
H1103       H  0.67874070  0.23830655  0.63809472     0.18100
C1104       C  0.76470859  0.26012646  0.60569515    -0.25900
C1105       C  0.78784781  0.27052232  0.60556127     0.36100
C1106       C  0.80710177  0.25811765  0.61664497    -0.19900
C1107       C  0.80301045  0.23581594  0.62763764    -0.25200
C1108       C  0.77980444  0.22595129  0.62869502     0.27500
H1109       H  0.74986390  0.26929500  0.59687710     0.13200
N1110       N  0.79198112  0.29317292  0.59369668    -0.82500
H1111       H  0.81782854  0.22656827  0.63637247     0.18100
N1112       N  0.77559094  0.20402996  0.64183424    -0.81100
H1113       H  0.77613754  0.29931064  0.58549739     0.33700
H1114       H  0.79630472  0.30587593  0.60691946     0.38200
H1115       H  0.79168144  0.19744684  0.64916629     0.33700
H1116       H  0.76435504  0.20822487  0.65640146     0.30400
H1117       H  0.70366055  0.27052597  0.64533692     0.33700
H1118       H  0.73183432  0.26231645  0.65268863     0.30400
H1119       H  0.69411782  0.16990609  0.58715427     0.38300
H1120       H  0.72263433  0.16236044  0.59389855     0.33700
C1121       C  0.56087965  0.14537410  0.64685774    -0.20000
C1122       C  0.55710212  0.12096725  0.65328550     0.36200
C1123       C  0.53422973  0.11369692  0.66157811    -0.26000
C1124       C  0.51520723  0.13024359  0.66343086     0.02600
C1125       C  0.51859876  0.15424729  0.65614493     0.27400
C1126       C  0.54133599  0.16156625  0.64792198    -0.25100
N1127       N  0.57640295  0.10371712  0.65157260    -0.82500
H1128       H  0.53128692  0.09518042  0.66700389     0.13300
C1129       C  0.49190408  0.12267574  0.67384595     0.02600
N1130       N  0.49899471  0.17119445  0.65763970    -0.81100
H1131       H  0.54391094  0.18026903  0.64299923     0.18100
C1132       C  0.48627274  0.12963036  0.69750477    -0.25900
C1133       C  0.46349166  0.12473481  0.70745063     0.36100
C1134       C  0.44619592  0.11248745  0.69340981    -0.19900
C1135       C  0.45199737  0.10526843  0.66983028    -0.25200
C1136       C  0.47476005  0.11023733  0.65988887     0.27500
H1137       H  0.49951630  0.13946801  0.70796694     0.13200
N1138       N  0.45754603  0.13295459  0.73132639    -0.82500
H1139       H  0.43860581  0.09595759  0.65907567     0.18100
N1140       N  0.48042718  0.10309086  0.63561271    -0.81100
H1141       H  0.47228906  0.14168000  0.73918134     0.33700
H1142       H  0.44388929  0.14587846  0.72969695     0.38200
H1143       H  0.46588934  0.09393702  0.62786627     0.33700
H1144       H  0.48289044  0.11876650  0.62546843     0.30400
H1145       H  0.50451902  0.18825783  0.65190683     0.33700
H1146       H  0.48563940  0.16555411  0.64558994     0.30400
H1147       H  0.58082020  0.10192991  0.63332401     0.38300
H1148       H  0.57067281  0.08674255  0.65737147     0.33700
C1149       C  0.62952460  0.14483000  0.56589915    -0.20000
C1150       C  0.61868554  0.15574218  0.54552153     0.36200
C1151       C  0.62425254  0.14707835  0.52240144    -0.26000
C1152       C  0.63986682  0.12745826  0.51921830     0.02600
C1153       C  0.64921662  0.11539672  0.53950888     0.27400
C1154       C  0.64404637  0.12425139  0.56262613    -0.25100
N1155       N  0.60250723  0.17584504  0.54821710    -0.82500
H1156       H  0.61707305  0.15623985  0.50670790     0.13300
C1157       C  0.64830294  0.12149649  0.49461806     0.02600
N1158       N  0.66444459  0.09460530  0.53646336    -0.81100
H1159       H  0.65211561  0.11544287  0.57807911     0.18100
C1160       C  0.67307015  0.12283123  0.48977122    -0.25900
C1161       C  0.68201245  0.11938973  0.46639596     0.36100
C1162       C  0.66578108  0.11417563  0.44745595    -0.19900
C1163       C  0.64093413  0.11292868  0.45230487    -0.25200
C1164       C  0.63202791  0.11639984  0.47577735     0.27500
H1165       H  0.68542384  0.12739072  0.50421455     0.13200
N1166       N  0.70739797  0.12200842  0.46173463    -0.82500
H1167       H  0.62846186  0.10900661  0.43778440     0.18100
N1168       N  0.60660129  0.11478236  0.48059605    -0.81100
H1169       H  0.71679597  0.12557860  0.47768852     0.33700
H1170       H  0.70958960  0.13713118  0.45071388     0.38200
H1171       H  0.59707993  0.11105039  0.46475507     0.33700
H1172       H  0.60394314  0.10011958  0.49211379     0.30400
H1173       H  0.67005052  0.08795471  0.55319034     0.33700
H1174       H  0.65404316  0.08109068  0.52845985     0.30400
H1175       H  0.58715955  0.16960562  0.55720322     0.38300
H1176       H  0.59666346  0.18203758  0.53139437     0.33700
C1177       C  0.36870836  0.70226513  0.20263312    -0.20000
C1178       C  0.35816655  0.72505942  0.20676168     0.36200
C1179       C  0.35829641  0.73463916  0.23014024    -0.26000
C1180       C  0.36936102  0.72226354  0.24921489     0.02600
C1181       C  0.38009500  0.69955451  0.24498898     0.27400
C1182       C  0.37929717  0.68960748  0.22174539    -0.25100
N1183       N  0.34638101  0.73785380  0.18751371    -0.82500
H1184       H  0.34956773  0.75179163  0.23357387     0.13300
C1185       C  0.36896047  0.73311434  0.27360108     0.02600
N1186       N  0.39181356  0.68677786  0.26426789    -0.81100
H1187       H  0.38723450  0.67205076  0.21841796     0.18100
C1188       C  0.35942516  0.71978828  0.29284295    -0.25900
C1189       C  0.35831337  0.72953511  0.31613215     0.36100
C1190       C  0.36667672  0.75317140  0.32010937    -0.19900
C1191       C  0.37578925  0.76671182  0.30085091    -0.25200
C1192       C  0.37732467  0.75679865  0.27762369     0.27500
H1193       H  0.35250981  0.70182944  0.28958403     0.13200
N1194       N  0.34826712  0.71575366  0.33564628    -0.82500
H1195       H  0.38224446  0.78485212  0.30408583     0.18100
N1196       N  0.38754197  0.77054094  0.25817709    -0.81100
H1197       H  0.34302808  0.69867092  0.32967577     0.33700
H1198       H  0.33256898  0.72453375  0.34137867     0.38200
H1199       H  0.39272098  0.78763925  0.26415497     0.33700
H1200       H  0.40327369  0.76173330  0.25259873     0.30400
H1201       H  0.39862770  0.67028794  0.25814870     0.33700
H1202       H  0.40664138  0.69703056  0.26973869     0.30400
H1203       H  0.35973644  0.74373934  0.17560696     0.38300
H1204       H  0.33797871  0.75342561  0.19406240     0.33700
C1205       C  0.17720667  0.75216696  0.13144411    -0.20000
C1206       C  0.19627052  0.76499946  0.14269572     0.36200
C1207       C  0.21920728  0.75431510  0.14444684    -0.26000
C1208       C  0.22388094  0.73157992  0.13448975     0.02600
C1209       C  0.20515220  0.71894238  0.12289138     0.27400
C1210       C  0.18201333  0.72920070  0.12176168    -0.25100
N1211       N  0.19249371  0.78879924  0.15226758    -0.82500
H1212       H  0.23368632  0.76391252  0.15337711     0.13300
C1213       C  0.24862174  0.72139714  0.13578415     0.02600
N1214       N  0.20980349  0.69584923  0.11203670    -0.81100
H1215       H  0.16771600  0.71918200  0.11303282     0.18100
C1216       C  0.25217272  0.69884856  0.14654464    -0.25900
C1217       C  0.27499744  0.68781140  0.14680755     0.36100
C1218       C  0.29500425  0.69993738  0.13645956    -0.19900
C1219       C  0.29138927  0.72291514  0.12631811    -0.25200
C1220       C  0.26844284  0.73367536  0.12574286     0.27500
H1221       H  0.23688679  0.68963626  0.15447139     0.13200
N1222       N  0.27770523  0.66438023  0.15753524    -0.82500
H1223       H  0.30647629  0.73251825  0.11851274     0.18100
N1224       N  0.26511966  0.75688565  0.11470385    -0.81100
H1225       H  0.26161284  0.65886502  0.16565416     0.33700
H1226       H  0.28100073  0.65214697  0.14355942     0.38200
H1227       H  0.28152749  0.76360466  0.10832347     0.33700
H1228       H  0.25401718  0.75454063  0.09964556     0.30400
H1229       H  0.19410465  0.68886624  0.10429213     0.33700
H1230       H  0.22204026  0.69849232  0.09793748     0.30400
H1231       H  0.18965277  0.80032941  0.13763093     0.38300
H1232       H  0.20801993  0.79504884  0.16094166     0.33700
C1233       C  0.71445919  0.29097737  0.12728552    -0.20000
C1234       C  0.70713794  0.27236105  0.14304522     0.36200
C1235       C  0.71845260  0.24973229  0.14148406    -0.26000
C1236       C  0.73660004  0.24535753  0.12441581     0.02600
C1237       C  0.74362088  0.26370737  0.10844511     0.27400
C1238       C  0.73241764  0.28629603  0.10997981    -0.25100
N1239       N  0.68904664  0.27665374  0.16113249    -0.82500
H1240       H  0.71320337  0.23541304  0.15367161     0.13300
C1241       C  0.74850026  0.22156906  0.12380925     0.02600
N1242       N  0.76241772  0.25943158  0.09107611    -0.81100
H1243       H  0.73798483  0.30045512  0.09774827     0.18100
C1244       C  0.74538725  0.20665900  0.10363513    -0.25900
C1245       C  0.75603375  0.18369502  0.10273273     0.36100
C1246       C  0.77001647  0.17568736  0.12244614    -0.19900
C1247       C  0.77362678  0.19093890  0.14230181    -0.25200
C1248       C  0.76291723  0.21381759  0.14321964     0.27500
H1249       H  0.73444927  0.21292140  0.08869376     0.13200
N1250       N  0.75284354  0.16858510  0.08190146    -0.82500
H1251       H  0.78435058  0.18473346  0.15742127     0.18100
N1252       N  0.76646151  0.22918610  0.16380036    -0.81100
H1253       H  0.74200913  0.17717790  0.06907574     0.33700
H1254       H  0.76977721  0.16617560  0.07393315     0.38200
H1255       H  0.77735286  0.22068060  0.17663377     0.33700
H1256       H  0.77589763  0.24439999  0.15797022     0.30400
H1257       H  0.76535791  0.27479855  0.08058961     0.33700
H1258       H  0.77838917  0.25625916  0.10059872     0.30400
H1259       H  0.67252505  0.27860018  0.15225976     0.38300
H1260       H  0.68721259  0.26161570  0.17232847     0.33700
C1261       C  0.71363520  0.36351332  0.19965954    -0.20000
C1262       C  0.70176098  0.35148536  0.21882568     0.36200
C1263       C  0.71088614  0.35351575  0.24232081    -0.26000
C1264       C  0.73193514  0.36653024  0.24695396     0.02600
C1265       C  0.74398893  0.37832552  0.22805367     0.27400
C1266       C  0.73463240  0.37685098  0.20458413    -0.25100
N1267       N  0.68098389  0.33664910  0.21439368    -0.82500
H1268       H  0.70206911  0.34416022  0.25702816     0.13300
C1269       C  0.74210594  0.36594955  0.27146065     0.02600
N1270       N  0.76579295  0.39148812  0.23279776    -0.81100
H1271       H  0.74386070  0.38610724  0.19008620     0.18100
C1272       C  0.76243621  0.35164572  0.27569428    -0.25900
C1273       C  0.77186635  0.34906145  0.29899112     0.36100
C1274       C  0.76099488  0.36170457  0.31839314    -0.19900
C1275       C  0.74053976  0.37608005  0.31395084    -0.25200
C1276       C  0.73093819  0.37824622  0.29063425     0.27500
H1277       H  0.77057500  0.34195106  0.26077915     0.13200
N1278       N  0.79211337  0.33330828  0.30295002    -0.80100
H1279       H  0.73212868  0.38587097  0.32863330     0.18100
N1280       N  0.70992338  0.39282144  0.28628182    -0.81100
H1281       H  0.79816959  0.32590515  0.28668673     0.33700
H1282       H  0.78606318  0.31888206  0.31344066     0.38200
H1283       H  0.70376782  0.40055999  0.30234926     0.33700
H1284       H  0.71508704  0.40704260  0.27506702     0.30400
H1285       H  0.77258610  0.39896480  0.21688971     0.33700
H1286       H  0.76137724  0.40590283  0.24413289     0.30400
H1287       H  0.68668974  0.32190166  0.20409826     0.38300
H1288       H  0.67424580  0.32959622  0.23052122     0.33700
C1289       C  0.68421320  0.60789325  0.22652901    -0.20000
C1290       C  0.69954420  0.62806736  0.22408333     0.36200
C1291       C  0.72180432  0.62813060  0.23607705    -0.26000
C1292       C  0.72890791  0.60851876  0.25025884     0.02600
C1293       C  0.71366237  0.58848788  0.25287301     0.27400
C1294       C  0.69133233  0.58843201  0.24106790    -0.25100
N1295       N  0.69212353  0.64875633  0.21033996    -0.82500
H1296       H  0.73378634  0.64343706  0.23428165     0.13300
C1297       C  0.75308571  0.60855742  0.26105708     0.02600
N1298       N  0.72102444  0.56830692  0.26737972    -0.81100
H1299       H  0.67947694  0.57305830  0.24307836     0.18100
C1300       C  0.75561927  0.61125968  0.28601898    -0.25900
C1301       C  0.77853350  0.61088771  0.29679860     0.36100
C1302       C  0.79921243  0.60791881  0.28205500    -0.19900
C1303       C  0.79635348  0.60522101  0.25700264    -0.25200
C1304       C  0.77349451  0.60542509  0.24639141     0.27500
H1305       H  0.73963976  0.61350773  0.29706573     0.13200
N1306       N  0.78073167  0.61329048  0.32252896    -0.82500
H1307       H  0.81201873  0.60301972  0.24552606     0.18100
N1308       N  0.77083150  0.60240609  0.22076496    -0.81100
H1309       H  0.76382738  0.61602767  0.33045247     0.33700
H1310       H  0.78718909  0.59688702  0.32920903     0.38200
H1311       H  0.78767901  0.60051843  0.21249105     0.33700
H1312       H  0.76159675  0.58625493  0.21784074     0.30400
H1313       H  0.70760874  0.55509147  0.26756987     0.33700
H1314       H  0.73613083  0.56053010  0.25916264     0.30400
H1315       H  0.69246499  0.64388042  0.19213544     0.38300
H1316       H  0.70460267  0.66273918  0.21221491     0.33700
C1317       C  0.61070900  0.67248958  0.23257152    -0.20000
C1318       C  0.59228976  0.67773358  0.24928807     0.36200
C1319       C  0.59181082  0.70026156  0.26071839    -0.26000
C1320       C  0.60974378  0.71736583  0.25603314     0.02600
C1321       C  0.62844203  0.71206850  0.23966426     0.27400
C1322       C  0.62864314  0.68969074  0.22792564    -0.25100
N1323       N  0.57384840  0.66042630  0.25436859    -0.82500
H1324       H  0.57750160  0.70438493  0.27339690     0.13300
C1325       C  0.60892529  0.74082553  0.26841916     0.02600
N1326       N  0.64714505  0.72941342  0.23517062    -0.81100
H1327       H  0.64305222  0.68550717  0.21537564     0.18100
C1328       C  0.62563066  0.74552310  0.28671974    -0.25900
C1329       C  0.62668036  0.76823036  0.29780556     0.36100
C1330       C  0.61047740  0.78652770  0.29041123    -0.19900
C1331       C  0.59336159  0.78146817  0.27238940    -0.25200
C1332       C  0.59246292  0.75875815  0.26127731     0.27500
H1333       H  0.63824732  0.73152912  0.29195514     0.13200
N1334       N  0.64460305  0.77289774  0.31595323    -0.82500
H1335       H  0.58080405  0.79535578  0.26676922     0.18100
N1336       N  0.57518563  0.75389099  0.24256309    -0.81100
H1337       H  0.65467938  0.75736624  0.31955990     0.33700
H1338       H  0.65666530  0.78552304  0.30889374     0.38200
H1339       H  0.56423750  0.76895540  0.23956128     0.33700
H1340       H  0.58474964  0.75087923  0.22658417     0.30400
H1341       H  0.65975854  0.72255660  0.22292173     0.33700
H1342       H  0.63916450  0.74437688  0.22693606     0.30400
H1343       H  0.57414632  0.65683445  0.27287374     0.38300
H1344       H  0.55716412  0.66818928  0.25020256     0.33700
C1345       C  0.54913910  0.61365736  0.17505997    -0.20000
C1346       C  0.52980295  0.61642312  0.19150046     0.36200
C1347       C  0.50655095  0.62088465  0.18264342    -0.26000
C1348       C  0.50191511  0.62190821  0.15781200     0.02600
C1349       C  0.52102353  0.61849488  0.14135721     0.27400
C1350       C  0.54450182  0.61468510  0.15016604    -0.25100
N1351       N  0.53388064  0.61578389  0.21711525    -0.82500
H1352       H  0.49191958  0.62395024  0.19524929     0.13300
C1353       C  0.47708967  0.62788230  0.14973447     0.02600
N1354       N  0.51651236  0.61897228  0.11583532    -0.81100
H1355       H  0.55925018  0.61242831  0.13753192     0.18100
C1356       C  0.47333502  0.64801984  0.13494016    -0.25900
C1357       C  0.44993868  0.65632269  0.12975993     0.36100
C1358       C  0.42985670  0.64472601  0.14042534    -0.19900
C1359       C  0.43370043  0.62364630  0.15397934    -0.25200
C1360       C  0.45705263  0.61499708  0.15853229     0.27500
H1361       H  0.48875745  0.65779252  0.12803434     0.13200
N1362       N  0.44664471  0.67664109  0.11402554    -0.82500
H1363       H  0.41848578  0.61418733  0.16171634     0.18100
N1364       N  0.46057675  0.59348582  0.17255220    -0.81100
H1365       H  0.46327917  0.68323944  0.10811235     0.33700
H1366       H  0.43761500  0.67048096  0.09865869     0.38200
H1367       H  0.44401175  0.58621762  0.17782826     0.33700
H1368       H  0.46882254  0.58070506  0.16138789     0.30400
H1369       H  0.53251393  0.61626665  0.10621307     0.33700
H1370       H  0.50525409  0.60443416  0.11176628     0.30400
H1371       H  0.53750148  0.59789299  0.22177723     0.38300
H1372       H  0.51819879  0.62049512  0.22649616     0.33700
C1373       C  0.66640431  0.42742714  0.13472486    -0.20000
C1374       C  0.68262465  0.44652833  0.13941727     0.36200
C1375       C  0.67351183  0.46983785  0.14285468    -0.26000
C1376       C  0.64873128  0.47440393  0.14155324     0.02600
C1377       C  0.63270951  0.45589233  0.13498018     0.27400
C1378       C  0.64168918  0.43241222  0.13201692    -0.25100
N1379       N  0.70811075  0.44213537  0.14163044    -0.82500
H1380       H  0.68565296  0.48436283  0.14765335     0.13300
C1381       C  0.63993737  0.49800728  0.14985680     0.02600
N1382       N  0.60762943  0.46111362  0.13075092    -0.81100
H1383       H  0.62935959  0.41794577  0.12757730     0.18100
C1384       C  0.64286440  0.51823818  0.13512469    -0.25900
C1385       C  0.63779332  0.54150305  0.14384796     0.36100
C1386       C  0.62890831  0.54433229  0.16770490    -0.19900
C1387       C  0.62570818  0.52373925  0.18212826    -0.25200
C1388       C  0.63162397  0.50072910  0.17366835     0.27500
H1389       H  0.65003185  0.51589456  0.11708500     0.13200
N1390       N  0.64216826  0.56204947  0.12869811    -0.82500
H1391       H  0.61936486  0.52556894  0.20051299     0.18100
N1392       N  0.63081235  0.48034591  0.18969314    -0.81100
H1393       H  0.64724472  0.55658274  0.11136930     0.33700
H1394       H  0.65704559  0.57117175  0.13580994     0.38200
H1395       H  0.62561689  0.48568957  0.20702126     0.33700
H1396       H  0.61747810  0.46857441  0.18361673     0.30400
H1397       H  0.59844796  0.44551003  0.12555467     0.33700
H1398       H  0.59979009  0.46680779  0.14689002     0.30400
H1399       H  0.71078518  0.43165818  0.15706903     0.38300
H1400       H  0.71743772  0.45825463  0.14444263     0.33700
C1401       C  0.30195132  0.36310901  0.78931820    -0.20000
C1402       C  0.29779976  0.35636636  0.76511579     0.36200
C1403       C  0.27449861  0.35822468  0.75553771    -0.26000
C1404       C  0.25524805  0.36677829  0.76952635     0.02600
C1405       C  0.25923687  0.37307023  0.79389611     0.27400
C1406       C  0.28258436  0.37091917  0.80364302    -0.25100
N1407       N  0.31720994  0.34728421  0.75045464    -0.82500
H1408       H  0.27124626  0.35275925  0.73705479     0.13300
C1409       C  0.23099174  0.36829016  0.75832342     0.02600
N1410       N  0.23968890  0.38194265  0.80847005    -0.81100
H1411       H  0.28582654  0.37599979  0.82223518     0.18100
C1412       C  0.21178036  0.35566414  0.76877864    -0.25900
C1413       C  0.18900784  0.35523059  0.75777835     0.36100
C1414       C  0.18549614  0.36750518  0.73577563    -0.19900
C1415       C  0.20463335  0.38008341  0.72521671    -0.25200
C1416       C  0.22730571  0.38096532  0.73652277     0.27500
H1417       H  0.21473973  0.34562030  0.78526779     0.13200
N1418       N  0.16956507  0.34186135  0.76851133    -0.82500
H1419       H  0.20172466  0.38959064  0.70839953     0.18100
N1420       N  0.24658407  0.39476264  0.72609009    -0.81100
H1421       H  0.17507728  0.33398366  0.78472720     0.33700
H1422       H  0.16526056  0.32770711  0.75682787     0.38200
H1423       H  0.24093147  0.40299802  0.71010209     0.33700
H1424       H  0.25077321  0.40863611  0.73814451     0.30400
H1425       H  0.24564245  0.38572470  0.82595833     0.33700
H1426       H  0.23397146  0.39829409  0.80104200     0.30400
H1427       H  0.32296612  0.33100167  0.75801513     0.38300
H1428       H  0.31114621  0.34330091  0.73304875     0.33700
C1429       C  0.37723317  0.17008346  0.74499289    -0.20000
C1430       C  0.38855856  0.17631531  0.76709203     0.36200
C1431       C  0.38637061  0.19996774  0.77604882    -0.26000
C1432       C  0.37356864  0.21761577  0.76330552     0.02600
C1433       C  0.36215953  0.21153510  0.74147933     0.27400
C1434       C  0.36409578  0.18789790  0.73254767    -0.25100
N1435       N  0.40253819  0.15886791  0.78023486    -0.82500
H1436       H  0.39516461  0.20487021  0.79280030     0.13300
C1437       C  0.37294240  0.24267409  0.77258586     0.02600
N1438       N  0.34863006  0.22944824  0.72850736    -0.81100
H1439       H  0.35510287  0.18337770  0.71580893     0.18100
C1440       C  0.38620388  0.26048536  0.76061857    -0.25900
C1441       C  0.38645510  0.28444242  0.76894452     0.36100
C1442       C  0.37266228  0.29082754  0.78951558    -0.19900
C1443       C  0.35946535  0.27276301  0.80148020    -0.25200
C1444       C  0.35944591  0.24879735  0.79319913     0.27500
H1445       H  0.39670499  0.25552996  0.74488238     0.13200
N1446       N  0.40098300  0.30208682  0.75677241    -0.82500
H1447       H  0.34882000  0.27737908  0.81720843     0.18100
N1448       N  0.34563990  0.23067002  0.80549299    -0.81100
H1449       H  0.40957148  0.29449617  0.74178277     0.33700
H1450       H  0.41465732  0.30731510  0.76865673     0.38200
H1451       H  0.33677822  0.23806617  0.82041886     0.33700
H1452       H  0.33221542  0.22474442  0.79365739     0.30400
H1453       H  0.34140027  0.22214682  0.71269996     0.33700
H1454       H  0.33400213  0.23450684  0.73930300     0.30400
H1455       H  0.41771482  0.15472971  0.76981483     0.38300
H1456       H  0.40899776  0.16623447  0.79634613     0.33700
C1457       C  0.27284036  0.67774667  0.88697265    -0.20000
C1458       C  0.24888965  0.68097291  0.89550277     0.36200
C1459       C  0.23892150  0.70422189  0.89620793    -0.26000
C1460       C  0.25209597  0.72420588  0.88843558     0.02600
C1461       C  0.27594198  0.72129488  0.88033802     0.27400
C1462       C  0.28614568  0.69813556  0.87983154    -0.25100
N1463       N  0.23459032  0.66081777  0.90324401    -0.82500
H1464       H  0.22054376  0.70678525  0.90239584     0.13300
C1465       C  0.24015185  0.74794410  0.88773960     0.02600
N1466       N  0.28951642  0.74183630  0.87232202    -0.81100
H1467       H  0.30448611  0.69603834  0.87342223     0.18100
C1468       C  0.24694890  0.76579980  0.90423720    -0.25900
C1469       C  0.23565070  0.78848619  0.90415432     0.36100
C1470       C  0.21749221  0.79334047  0.88690283    -0.19900
C1471       C  0.21066903  0.77525694  0.87055433    -0.25200
C1472       C  0.22190949  0.75262996  0.87073118     0.27500
H1473       H  0.26088457  0.76186463  0.91737029     0.13200
N1474       N  0.24222984  0.80635508  0.92174516    -0.82500
H1475       H  0.19683199  0.77893938  0.85724880     0.18100
N1476       N  0.21506645  0.73441064  0.85360315    -0.81100
H1477       H  0.25593860  0.79989234  0.93297629     0.33700
H1478       H  0.22720041  0.80933247  0.93276231     0.38200
H1479       H  0.20125383  0.74068819  0.84239611     0.33700
H1480       H  0.22995563  0.73110484  0.84249500     0.30400
H1481       H  0.30687535  0.73665948  0.86703648     0.33700
H1482       H  0.28100448  0.74865456  0.85693864     0.30400
H1483       H  0.23020209  0.65081924  0.88787363     0.38300
H1484       H  0.21819223  0.66664865  0.91054713     0.33700
C1485       C  0.27664082  0.60743790  0.81398103    -0.20000
C1486       C  0.28567844  0.62115088  0.79439184     0.36200
C1487       C  0.27306204  0.62125375  0.77235616    -0.26000
C1488       C  0.25202653  0.60766528  0.76933312     0.02600
C1489       C  0.24347425  0.59333533  0.78837961     0.27400
C1490       C  0.25582820  0.59335865  0.81046750    -0.25100
N1491       N  0.30718233  0.63536475  0.79695567    -0.82500
H1492       H  0.27959960  0.63201391  0.75743110     0.13300
C1493       C  0.23900786  0.60857686  0.74607976     0.02600
N1494       N  0.22220900  0.57888488  0.78519913    -0.81100
H1495       H  0.24888037  0.58252550  0.82513971     0.18100
C1496       C  0.24386026  0.59105592  0.72857325    -0.25900
C1497       C  0.23164320  0.59109401  0.70634666     0.36100
C1498       C  0.21412515  0.60909161  0.70161606    -0.19900
C1499       C  0.20922139  0.62652575  0.71939148    -0.25200
C1500       C  0.22161679  0.62652392  0.74153210     0.27500
H1501       H  0.25720624  0.57726777  0.73234263     0.13200
N1502       N  0.23682886  0.57279158  0.68871694    -0.82500
H1503       H  0.19603756  0.64050775  0.71580399     0.18100
N1504       N  0.21694218  0.64486092  0.75927325    -0.81100
H1505       H  0.25036213  0.56119320  0.69490495     0.33700
H1506       H  0.22128466  0.56234695  0.68666324     0.38200
H1507       H  0.20392932  0.65698762  0.75299248     0.33700
H1508       H  0.20956904  0.63647608  0.77444458     0.30400
H1509       H  0.21847508  0.56908830  0.80085485     0.33700
H1510       H  0.20763181  0.59057143  0.78259108     0.30400
H1511       H  0.32169534  0.62341139  0.79854835     0.38300
H1512       H  0.31039864  0.64540397  0.78133730     0.33700
C1513       C  0.35298814  0.64375790  0.07191901    -0.20000
C1514       C  0.33043908  0.63470744  0.06458291     0.36200
C1515       C  0.32701478  0.62856315  0.04029990    -0.26000
C1516       C  0.34594768  0.63038572  0.02355242     0.02600
C1517       C  0.36888505  0.63818726  0.03132219     0.27400
C1518       C  0.37202154  0.64524361  0.05537644    -0.25100
N1519       N  0.31076748  0.63315615  0.08141983    -0.82500
H1520       H  0.30930045  0.62296954  0.03426883     0.13300
C1521       C  0.34096781  0.62560909  0.99773736     0.02600
N1522       N  0.38876961  0.63916339  0.01470105    -0.81100
H1523       H  0.38936345  0.65205680  0.06127477     0.18100
C1524       C  0.34704258  0.64318570  0.98058185    -0.25900
C1525       C  0.34111390  0.64024161  0.95618038     0.36100
C1526       C  0.32839484  0.61946758  0.94893904    -0.19900
C1527       C  0.32250103  0.60181121  0.96602546    -0.25200
C1528       C  0.32899625  0.60446731  0.99029774     0.27500
H1529       H  0.35579142  0.65964369  0.98637371     0.13200
N1530       N  0.34720981  0.65862677  0.93897164    -0.82500
H1531       H  0.31288764  0.58578979  0.96036046     0.18100
N1532       N  0.32345003  0.58584041  0.00742219    -0.81100
H1533       H  0.35687389  0.67252209  0.94725006     0.33700
H1534       H  0.33109444  0.66623188  0.93276428     0.38200
H1535       H  0.31445895  0.57156729  0.99903173     0.33700
H1536       H  0.33979799  0.57893634  0.01382235     0.30400
H1537       H  0.40432039  0.64546398  0.02329264     0.33700
H1538       H  0.39245246  0.62153098  0.00913959     0.30400
H1539       H  0.31506672  0.61971403  0.09389954     0.38300
H1540       H  0.29505331  0.62742841  0.07272313     0.33700
C1541       C  0.33384598  0.54606416  0.87520307    -0.20000
C1542       C  0.35828985  0.54209412  0.86882169     0.36200
C1543       C  0.36618622  0.51852777  0.86362493    -0.26000
C1544       C  0.35038146  0.49890869  0.86522765     0.02600
C1545       C  0.32648239  0.50262472  0.87298118     0.27400
C1546       C  0.31852171  0.52607420  0.87798404    -0.25100
N1547       N  0.37495618  0.56185505  0.86743046    -0.82500
H1548       H  0.38465454  0.51541969  0.85800040     0.13300
C1549       C  0.35831817  0.47469669  0.85722752     0.02600
N1550       N  0.31014783  0.48261448  0.87497130    -0.81100
H1551       H  0.29988178  0.52873183  0.88321757     0.18100
C1552       C  0.35856514  0.45565787  0.87378097    -0.25900
C1553       C  0.36272132  0.43183398  0.86620849     0.36100
C1554       C  0.36628572  0.42694003  0.84134992    -0.19900
C1555       C  0.36742166  0.44634395  0.82508521    -0.25200
C1556       C  0.36336279  0.47013735  0.83275038     0.27500
H1557       H  0.35496941  0.45940399  0.89263041     0.13200
N1558       N  0.36307474  0.41269992  0.88367416    -0.82500
H1559       H  0.37048325  0.44290438  0.80609827     0.18100
N1560       N  0.36346452  0.48959634  0.81563976    -0.81100
H1561       H  0.35964620  0.41936980  0.90098460     0.33700
H1562       H  0.38058323  0.40566259  0.88401598     0.38200
H1563       H  0.36764056  0.48324759  0.79837575     0.33700
H1564       H  0.34594849  0.49656161  0.81474379     0.30400
H1565       H  0.29325723  0.48836273  0.88111810     0.33700
H1566       H  0.30749684  0.47564090  0.85765129     0.30400
H1567       H  0.37700110  0.56874660  0.88486810     0.38300
H1568       H  0.39200796  0.55582447  0.86203862     0.33700
C1569       C  0.68881688  0.25984707  0.88626688    -0.20000
C1570       C  0.69418527  0.24097433  0.90265362     0.36200
C1571       C  0.71706317  0.23009245  0.90203689    -0.26000
C1572       C  0.73436282  0.23730790  0.88519652     0.02600
C1573       C  0.72937391  0.25637322  0.86927238     0.27400
C1574       C  0.70668855  0.26757758  0.87005298    -0.25100
N1575       N  0.67662029  0.23297828  0.91995927    -0.82500
H1576       H  0.72122876  0.21543307  0.91426108     0.13300
C1577       C  0.75742061  0.22416313  0.88376222     0.02600
N1578       N  0.74729667  0.26397543  0.85216368    -0.81100
H1579       H  0.70273775  0.28195851  0.85744678     0.18100
C1580       C  0.76132113  0.20848212  0.86435146    -0.25900
C1581       C  0.78331624  0.19620850  0.86179192     0.36100
C1582       C  0.80163162  0.19971468  0.87916011    -0.19900
C1583       C  0.79758438  0.21538242  0.89864858    -0.25200
C1584       C  0.77553258  0.22758539  0.90118266     0.27500
H1585       H  0.74721575  0.20607629  0.85103329     0.13200
N1586       N  0.78731384  0.18073479  0.84135036    -0.82500
H1587       H  0.81163239  0.21800911  0.91197835     0.18100
N1588       N  0.77143353  0.24348542  0.92125383    -0.81100
H1589       H  0.77193228  0.18000865  0.83046189     0.33700
H1590       H  0.80093084  0.18849068  0.83088257     0.38200
H1591       H  0.78652545  0.24386253  0.93255523     0.33700
H1592       H  0.76936050  0.26091408  0.91440565     0.30400
H1593       H  0.74072606  0.27811480  0.84157110     0.33700
H1594       H  0.76190700  0.27083275  0.86190095     0.30400
H1595       H  0.66376632  0.22284660  0.91063542     0.38300
H1596       H  0.68449083  0.22112007  0.93232804     0.33700
C1597       C  0.61978693  0.25990052  0.81364086    -0.20000
C1598       C  0.62336839  0.27370480  0.79245163     0.36200
C1599       C  0.62422117  0.26203386  0.77002459    -0.26000
C1600       C  0.62090267  0.23710417  0.76820457     0.02600
C1601       C  0.61667591  0.22337886  0.78910360     0.27400
C1602       C  0.61632322  0.23488016  0.81161755    -0.25100
N1603       N  0.62594601  0.29945856  0.79362717    -0.82500
H1604       H  0.62738690  0.27242703  0.75379263     0.13300
C1605       C  0.62177547  0.22563043  0.74419502     0.02600
N1606       N  0.61268804  0.19784237  0.78732404    -0.81100
H1607       H  0.61349979  0.22414079  0.82767003     0.18100
C1608       C  0.63924916  0.20796544  0.73959488    -0.25900
C1609       C  0.64060703  0.19650975  0.71707114     0.36100
C1610       C  0.62430222  0.20331509  0.69860745    -0.19900
C1611       C  0.60695939  0.22122446  0.70332033    -0.25200
C1612       C  0.60540209  0.23230066  0.72598329     0.27500
H1613       H  0.65187077  0.20310328  0.75371135     0.13200
N1614       N  0.65885248  0.17853501  0.71285595    -0.82500
H1615       H  0.59430261  0.22640972  0.68936186     0.18100
N1616       N  0.58717013  0.25016850  0.73067892    -0.81100
H1617       H  0.67067962  0.17749302  0.72750945     0.33700
H1618       H  0.65019708  0.16183693  0.71205158     0.38200
H1619       H  0.57662349  0.25311756  0.71532772     0.33700
H1620       H  0.57564707  0.24325993  0.74389300     0.30400
H1621       H  0.60995889  0.19035602  0.80440254     0.33700
H1622       H  0.59670056  0.19524964  0.77766894     0.30400
H1623       H  0.60946017  0.30654772  0.79947848     0.38300
H1624       H  0.62903575  0.30665018  0.77647999     0.33700
C1625       C  0.62798654  0.31769866  0.94658352    -0.20000
C1626       C  0.61965037  0.30574884  0.96755956     0.36200
C1627       C  0.62564569  0.31502540  0.99032719    -0.26000
C1628       C  0.63933805  0.33606711  0.99255759     0.02600
C1629       C  0.64627588  0.34888365  0.97186561     0.27400
C1630       C  0.64057885  0.33957757  0.94907687    -0.25100
N1631       N  0.60561908  0.28405435  0.96582206    -0.82500
H1632       H  0.62027458  0.30541141  0.00645923     0.13300
C1633       C  0.64820994  0.34311764  0.01658588     0.02600
N1634       N  0.65956555  0.37098910  0.97415940    -0.81100
H1635       H  0.64669477  0.34917594  0.93322305     0.18100
C1636       C  0.67297800  0.34134667  0.02123879    -0.25900
C1637       C  0.68214547  0.34537655  0.04444076     0.36100
C1638       C  0.66613378  0.35181552  0.06320744    -0.19900
C1639       C  0.64134549  0.35405651  0.05833225    -0.25200
C1640       C  0.63221974  0.34979035  0.03512349     0.27500
H1641       H  0.68506064  0.33586246  0.00686577     0.13200
N1642       N  0.70743668  0.34197672  0.04916015    -0.82500
H1643       H  0.62905493  0.35905814  0.07269561     0.18100
N1644       N  0.60683598  0.35198084  0.03028314    -0.81100
H1645       H  0.71664841  0.33746947  0.03332399     0.33700
H1646       H  0.70915390  0.32718207  0.06070969     0.38200
H1647       H  0.59750916  0.35694021  0.04591501     0.33700
H1648       H  0.60456791  0.36605888  0.01796538     0.30400
H1649       H  0.66346794  0.37815407  0.95717088     0.33700
H1650       H  0.64838102  0.38346026  0.98285102     0.30400
H1651       H  0.58906603  0.28865792  0.95802972     0.38300
H1652       H  0.60170682  0.27724569  0.98295709     0.33700
C1653       C  0.55580421  0.31507772  0.86991449    -0.20000
C1654       C  0.53709137  0.29890452  0.86380976     0.36200
C1655       C  0.51402290  0.30792488  0.85896385    -0.26000
C1656       C  0.50936124  0.33269819  0.85943914     0.02600
C1657       C  0.52782692  0.34893521  0.86566624     0.27400
C1658       C  0.55097468  0.33993055  0.87091510    -0.25100
N1659       N  0.54173693  0.27347788  0.86165116    -0.82500
H1660       H  0.49967843  0.29563214  0.85399795     0.13300
C1661       C  0.48536181  0.34103442  0.85154344     0.02600
N1662       N  0.52308249  0.37439973  0.86620977    -0.81100
H1663       H  0.56531490  0.35231659  0.87560964     0.18100
C1664       C  0.46927257  0.35104671  0.86831479    -0.25900
C1665       C  0.44534234  0.35635211  0.86170848     0.36100
C1666       C  0.43768175  0.35153485  0.83792157    -0.19900
C1667       C  0.45415811  0.34246337  0.82099542    -0.25200
C1668       C  0.47790444  0.33704879  0.82759749     0.27500
H1669       H  0.47522923  0.35407408  0.88667950     0.13200
N1670       N  0.42885114  0.36653063  0.87895409    -0.82500
H1671       H  0.44824955  0.33883558  0.80271571     0.18100
N1672       N  0.49439227  0.32692918  0.81028649    -0.81100
H1673       H  0.43735727  0.36890419  0.89561506     0.33700
H1674       H  0.42408230  0.38371170  0.87284101     0.38200
H1675       H  0.48598086  0.32477756  0.79354746     0.33700
H1676       H  0.50834272  0.33932750  0.80778012     0.30400
H1677       H  0.53858852  0.38385348  0.87123390     0.33700
H1678       H  0.51890802  0.37979954  0.84863601     0.30400
H1679       H  0.55358282  0.27103418  0.84716805     0.38300
H1680       H  0.52595456  0.26416472  0.85726088     0.33700
loop_ 
_geom_bond_atom_site_label_1 
_geom_bond_atom_site_label_2 
_geom_bond_distance 
_geom_bond_site_symmetry_2 
_ccdc_geom_bond_type 
O1           Ni9   1.908       .  S
O1           C11   1.279       .  A
O2           Ni9   1.907       .  S
O2           C12   1.280       .  A
O3           Ni9   1.921       .  S
O3           C13   1.283       .  A
O4           Ni9   1.920       .  S
O4           C14   1.282       .  A
O5          Ni10   1.903       .  S
O5           C14   1.279       .  A
O6          Ni10   1.904       .  S
O6           C13   1.278       .  A
O7          Ni10   1.913       .  S
O7           C12   1.281       .  A
O8          Ni10   1.914       .  S
O8           C11   1.282       .  A
Ni9         Ni10   2.385       .  S
C11        C1597   1.483       .  S
C12        C1625   1.484       .  S
C13        C1569   1.481       .  S
C14        C1653   1.476       .  S
O15         Ni23   1.919       .  S
O15          C25   1.281       .  A
O16         Ni23   1.915       .  S
O16          C26   1.281       .  A
O17         Ni23   1.921       .  S
O17          C27   1.282       .  A
O18         Ni23   1.917       .  S
O18          C28   1.282       .  A
O19         Ni24   1.910       .  S
O19          C28   1.279       .  A
O20         Ni24   1.907       .  S
O20          C27   1.281       .  A
O21         Ni24   1.905       .  S
O21          C26   1.279       .  A
O22         Ni24   1.912       .  S
O22          C25   1.281       .  A
Ni23        Ni24   2.384       .  S
C25        C1485   1.489       .  S
C26        C1526   1.471       .  S
C27        C1541   1.488       .  S
C28        C1457   1.488       .  S
O29         Ni37   1.919       .  S
O29          C39   1.282       .  A
O30         Ni37   1.912       .  S
O30          C40   1.280       .  A
O31         Ni37   1.923       .  S
O31          C41   1.282       .  A
O32         Ni37   1.920       .  S
O32          C42   1.282       .  A
O33         Ni38   1.903       .  S
O33          C42   1.278       .  A
O34         Ni38   1.905       .  S
O34          C41   1.279       .  A
O35         Ni38   1.922       .  S
O35          C40   1.283       .  A
O36         Ni38   1.921       .  S
O36          C39   1.282       .  A
Ni37        Ni38   2.386       .  S
C39        C1442   1.491       .  S
C40        C1554   1.489       .  S
C41        C1401   1.475       .  S
C42        C1666   1.471       .  S
O43         Ni51   1.911       .  S
O43          C53   1.280       .  A
O44         Ni51   1.909       .  S
O44          C54   1.282       .  A
O45         Ni51   1.904       .  S
O45          C55   1.279       .  A
O46         Ni51   1.905       .  S
O46          C56   1.278       .  A
O47         Ni52   1.919       .  S
O47          C56   1.282       .  A
O48         Ni52   1.914       .  S
O48          C55   1.281       .  A
O49         Ni52   1.913       .  S
O49          C54   1.279       .  A
O50         Ni52   1.909       .  S
O50          C53   1.280       .  A
Ni51        Ni52   2.387       .  S
C53        C1317   1.471       .  S
C54        C1386   1.486       .  S
C55        C1289   1.471       .  S
C56        C1345   1.480       .  S
O57         Ni65   1.917       .  S
O57          C67   1.282       .  A
O58         Ni65   1.913       .  S
O58          C68   1.281       .  A
O59         Ni65   1.903       .  S
O59          C69   1.278       .  A
O60         Ni65   1.902       .  S
O60          C70   1.279       .  A
O61         Ni66   1.921       .  S
O61          C70   1.282       .  A
O62         Ni66   1.917       .  S
O62          C69   1.282       .  A
O63         Ni66   1.907       .  S
O63          C68   1.279       .  A
O64         Ni66   1.908       .  S
O64          C67   1.279       .  A
Ni65        Ni66   2.387       .  S
C67        C1261   1.483       .  S
C68        C1638   1.475       .  S
C69        C1373   1.476       .  S
C70        C1233   1.478       .  S
O71         Ni79   1.906       .  S
O71          C81   1.278       .  A
O72         Ni79   1.904       .  S
O72          C82   1.279       .  A
O73         Ni79   1.919       .  S
O73          C83   1.283       .  A
O74         Ni79   1.917       .  S
O74          C84   1.282       .  A
O75         Ni80   1.913       .  S
O75          C84   1.281       .  A
O76         Ni80   1.912       .  S
O76          C83   1.280       .  A
O77         Ni80   1.912       .  S
O77          C82   1.279       .  A
O78         Ni80   1.912       .  S
O78          C81   1.280       .  A
Ni79        Ni80   2.387       .  S
C81        C1177   1.466       .  S
C82        C1513   1.464       .  S
C83        C1218   1.491       .  S
C84        C1358   1.488       .  S
O85         Ni93   1.911       .  S
O85          C95   1.281       .  A
O86         Ni93   1.914       .  S
O86          C96   1.281       .  A
O87         Ni93   1.910       .  S
O87          C97   1.281       .  A
O88         Ni93   1.912       .  S
O88          C98   1.279       .  A
O89         Ni94   1.921       .  S
O89          C98   1.282       .  A
O90         Ni94   1.922       .  S
O90          C97   1.282       .  A
O91         Ni94   1.907       .  S
O91          C96   1.280       .  A
O92         Ni94   1.909       .  S
O92          C95   1.279       .  A
Ni93        Ni94   2.385       .  S
C95        C1610   1.480       .  S
C96        C1149   1.484       .  S
C97        C1121   1.487       .  S
C98        C1093   1.474       .  S
O99        Ni107   1.921       .  S
O99         C109   1.283       .  A
O100       Ni107   1.914       .  S
O100        C110   1.281       .  A
O101       Ni107   1.924       .  S
O101        C111   1.283       .  A
O102       Ni107   1.922       .  S
O102        C112   1.282       .  A
O103       Ni108   1.911       .  S
O103        C112   1.280       .  A
O104       Ni108   1.912       .  S
O104        C111   1.279       .  A
O105       Ni108   1.911       .  S
O105        C110   1.281       .  A
O106       Ni108   1.913       .  S
O106        C109   1.280       .  A
Ni107      Ni108   2.386       .  S
C109       C1037   1.491       .  S
C110       C1162   1.477       .  S
C111       C1022   1.479       .  S
C112       C1065   1.482       .  S
O113       Ni121   1.915       .  S
O113        C123   1.280       .  A
O114       Ni121   1.920       .  S
O114        C124   1.282       .  A
O115       Ni121   1.923       .  S
O115        C125   1.282       .  A
O116       Ni121   1.919       .  S
O116        C126   1.282       .  A
O117       Ni122   1.909       .  S
O117        C126   1.279       .  A
O118       Ni122   1.909       .  S
O118        C125   1.279       .  A
O119       Ni122   1.917       .  S
O119        C124   1.282       .  A
O120       Ni122   1.924       .  S
O120        C123   1.284       .  A
Ni121      Ni122   2.387       .  S
C123       C1429   1.492       .  S
C124        C981   1.484       .  S
C125       C1134   1.474       .  S
C126        C953   1.473       .  S
O127       Ni135   1.914       .  S
O127        C137   1.282       .  A
O128       Ni135   1.921       .  S
O128        C138   1.282       .  A
O129       Ni135   1.919       .  S
O129        C139   1.282       .  A
O130       Ni135   1.916       .  S
O130        C140   1.281       .  A
O131       Ni136   1.904       .  S
O131        C140   1.279       .  A
O132       Ni136   1.908       .  S
O132        C139   1.279       .  A
O133       Ni136   1.913       .  S
O133        C138   1.281       .  A
O134       Ni136   1.917       .  S
O134        C137   1.281       .  A
Ni135      Ni136   2.385       .  S
C137        C910   1.491       .  S
C138        C994   1.490       .  S
C139        C869   1.479       .  S
C140        C925   1.473       .  S
O141       Ni149   1.914       .  S
O141        C151   1.281       .  A
O142       Ni149   1.913       .  S
O142        C152   1.281       .  A
O143       Ni149   1.915       .  S
O143        C153   1.282       .  A
O144       Ni149   1.918       .  S
O144        C154   1.282       .  A
O145       Ni150   1.905       .  S
O145        C154   1.279       .  A
O146       Ni150   1.904       .  S
O146        C153   1.278       .  A
O147       Ni150   1.914       .  S
O147        C152   1.281       .  A
O148       Ni150   1.912       .  S
O148        C151   1.281       .  A
Ni149      Ni150   2.384       .  S
C151       C1330   1.480       .  S
C152       C1078   1.484       .  S
C153        C841   1.484       .  S
C154        C813   1.487       .  S
O155       Ni163   1.907       .  S
O155        C165   1.279       .  A
O156       Ni163   1.906       .  S
O156        C166   1.279       .  A
O157       Ni163   1.909       .  S
O157        C167   1.281       .  A
O158       Ni163   1.906       .  S
O158        C168   1.280       .  A
O159       Ni164   1.909       .  S
O159        C168   1.280       .  A
O160       Ni164   1.909       .  S
O160        C167   1.280       .  A
O161       Ni164   1.910       .  S
O161        C166   1.280       .  A
O162       Ni164   1.912       .  S
O162        C165   1.280       .  A
Ni163      Ni164   2.390       .  S
C165       C1190   1.467       .  S
C166        C938   1.463       .  S
C167        C785   1.481       .  S
C168        C854   1.473       .  S
O169       Ni177   1.912       .  S
O169        C179   1.280       .  A
O170       Ni177   1.907       .  S
O170        C180   1.281       .  A
O171       Ni177   1.914       .  S
O171        C181   1.281       .  A
O172       Ni177   1.914       .  S
O172        C182   1.280       .  A
O173       Ni178   1.914       .  S
O173        C182   1.281       .  A
O174       Ni178   1.916       .  S
O174        C181   1.281       .  A
O175       Ni178   1.924       .  S
O175        C180   1.282       .  A
O176       Ni178   1.918       .  S
O176        C179   1.283       .  A
Ni177      Ni178   2.385       .  S
C179       C1205   1.491       .  S
C180        C757   1.490       .  S
C181        C714   1.476       .  S
C182        C729   1.479       .  S
O183       Ni191   1.911       .  S
O183        C193   1.282       .  A
O184       Ni191   1.917       .  S
O184        C194   1.281       .  A
O185       Ni191   1.915       .  S
O185        C195   1.281       .  A
O186       Ni191   1.916       .  S
O186        C196   1.281       .  A
O187       Ni192   1.906       .  S
O187        C196   1.279       .  A
O188       Ni192   1.906       .  S
O188        C195   1.279       .  A
O189       Ni192   1.910       .  S
O189        C194   1.281       .  A
O190       Ni192   1.914       .  S
O190        C193   1.280       .  A
Ni191      Ni192   2.386       .  S
C193        C826   1.483       .  S
C194        C770   1.486       .  S
C195        C645   1.473       .  S
C196        C673   1.478       .  S
O197       Ni205   1.912       .  S
O197        C207   1.281       .  A
O198       Ni205   1.909       .  S
O198        C208   1.279       .  A
O199       Ni205   1.913       .  S
O199        C209   1.280       .  A
O200       Ni205   1.911       .  S
O200        C210   1.281       .  A
O201       Ni206   1.912       .  S
O201        C210   1.280       .  A
O202       Ni206   1.911       .  S
O202        C209   1.281       .  A
O203       Ni206   1.920       .  S
O203        C208   1.283       .  A
O204       Ni206   1.920       .  S
O204        C207   1.282       .  A
Ni205      Ni206   2.384       .  S
C207        C882   1.490       .  S
C208        C742   1.486       .  S
C209       C1470   1.477       .  S
C210        C617   1.480       .  S
O211       Ni219   1.919       .  S
O211        C221   1.282       .  A
O212       Ni219   1.919       .  S
O212        C222   1.282       .  A
O213       Ni219   1.918       .  S
O213        C223   1.281       .  A
O214       Ni219   1.913       .  S
O214        C224   1.281       .  A
O215       Ni220   1.915       .  S
O215        C224   1.281       .  A
O216       Ni220   1.918       .  S
O216        C223   1.282       .  A
O217       Ni220   1.908       .  S
O217        C222   1.279       .  A
O218       Ni220   1.908       .  S
O218        C221   1.279       .  A
Ni219      Ni220   2.389       .  S
C221        C966   1.474       .  S
C222        C589   1.473       .  S
C223        C574   1.482       .  S
C224        C630   1.473       .  S
O225       Ni233   1.923       .  S
O225        C235   1.284       .  A
O226       Ni233   1.923       .  S
O226        C236   1.282       .  A
O227       Ni233   1.913       .  S
O227        C237   1.281       .  A
O228       Ni233   1.912       .  S
O228        C238   1.280       .  A
O229       Ni234   1.908       .  S
O229        C238   1.280       .  A
O230       Ni234   1.911       .  S
O230        C237   1.280       .  A
O231       Ni234   1.909       .  S
O231        C236   1.281       .  A
O232       Ni234   1.915       .  S
O232        C235   1.280       .  A
Ni233      Ni234   2.386       .  S
C235       C1050   1.492       .  S
C236        C533   1.489       .  S
C237       C1246   1.472       .  S
C238        C686   1.473       .  S
O239       Ni247   1.911       .  S
O239        C249   1.280       .  A
O240       Ni247   1.915       .  S
O240        C250   1.280       .  A
O241       Ni247   1.924       .  S
O241        C251   1.283       .  A
O242       Ni247   1.917       .  S
O242        C252   1.282       .  A
O243       Ni248   1.908       .  S
O243        C252   1.279       .  A
O244       Ni248   1.904       .  S
O244        C251   1.280       .  A
O245       Ni248   1.910       .  S
O245        C250   1.280       .  A
O246       Ni248   1.913       .  S
O246        C249   1.281       .  A
Ni247      Ni248   2.389       .  S
C249       C1582   1.474       .  S
C250        C602   1.471       .  S
C251        C546   1.489       .  S
C252        C505   1.473       .  S
O253       Ni261   1.917       .  S
O253        C263   1.282       .  A
O254       Ni261   1.925       .  S
O254        C264   1.283       .  A
O255       Ni261   1.926       .  S
O255        C265   1.283       .  A
O256       Ni261   1.923       .  S
O256        C266   1.282       .  A
O257       Ni262   1.916       .  S
O257        C266   1.280       .  A
O258       Ni262   1.915       .  S
O258        C265   1.281       .  A
O259       Ni262   1.910       .  S
O259        C264   1.280       .  A
O260       Ni262   1.913       .  S
O260        C263   1.281       .  A
Ni261      Ni262   2.384       .  S
C263        C897   1.488       .  S
C264        C490   1.493       .  S
C265       C1498   1.487       .  S
C266        C462   1.476       .  S
O267       Ni275   1.903       .  S
O267        C277   1.278       .  A
O268       Ni275   1.901       .  S
O268        C278   1.278       .  A
O269       Ni275   1.917       .  S
O269        C279   1.282       .  A
O270       Ni275   1.918       .  S
O270        C280   1.282       .  A
O271       Ni276   1.917       .  S
O271        C280   1.282       .  A
O272       Ni276   1.923       .  S
O272        C279   1.283       .  A
O273       Ni276   1.919       .  S
O273        C278   1.282       .  A
O274       Ni276   1.923       .  S
O274        C277   1.282       .  A
Ni275      Ni276   2.388       .  S
C277       C1414   1.469       .  S
C278        C434   1.471       .  S
C279        C561   1.490       .  S
C280        C477   1.488       .  S
O281       Ni289   1.908       .  S
O281        C291   1.280       .  A
O282       Ni289   1.908       .  S
O282        C292   1.280       .  A
O283       Ni289   1.918       .  S
O283        C293   1.282       .  A
O284       Ni289   1.916       .  S
O284        C294   1.281       .  A
O285       Ni290   1.922       .  S
O285        C294   1.282       .  A
O286       Ni290   1.919       .  S
O286        C293   1.282       .  A
O287       Ni290   1.904       .  S
O287        C292   1.280       .  A
O288       Ni290   1.905       .  S
O288        C291   1.279       .  A
Ni289      Ni290   2.387       .  S
C291        C798   1.474       .  S
C292        C393   1.477       .  S
C293        C449   1.487       .  S
C294        C701   1.477       .  S
O295       Ni303   1.912       .  S
O295        C305   1.279       .  A
O296       Ni303   1.909       .  S
O296        C306   1.279       .  A
O297       Ni303   1.902       .  S
O297        C307   1.280       .  A
O298       Ni303   1.911       .  S
O298        C308   1.281       .  A
O299       Ni304   1.913       .  S
O299        C308   1.280       .  A
O300       Ni304   1.917       .  S
O300        C307   1.281       .  A
O301       Ni304   1.916       .  S
O301        C306   1.281       .  A
O302       Ni304   1.915       .  S
O302        C305   1.281       .  A
Ni303      Ni304   2.389       .  S
C305       C1106   1.468       .  S
C306        C421   1.471       .  S
C307        C378   1.484       .  S
C308        C518   1.476       .  S
O309       Ni317   1.909       .  S
O309        C319   1.279       .  A
O310       Ni317   1.908       .  S
O310        C320   1.280       .  A
O311       Ni317   1.912       .  S
O311        C321   1.281       .  A
O312       Ni317   1.909       .  S
O312        C322   1.280       .  A
O313       Ni318   1.911       .  S
O313        C322   1.281       .  A
O314       Ni318   1.913       .  S
O314        C321   1.281       .  A
O315       Ni318   1.906       .  S
O315        C320   1.279       .  A
O316       Ni318   1.904       .  S
O316        C319   1.280       .  A
Ni317      Ni318   2.387       .  S
C319       C1302   1.478       .  S
C320        C406   1.473       .  S
C321        C658   1.481       .  S
C322        C350   1.479       .  S
O323       Ni331   1.919       .  S
O323        C333   1.282       .  A
O324       Ni331   1.916       .  S
O324        C334   1.281       .  A
O325       Ni331   1.916       .  S
O325        C335   1.282       .  A
O326       Ni331   1.922       .  S
O326        C336   1.282       .  A
O327       Ni332   1.896       .  S
O327        C336   1.278       .  A
O328       Ni332   1.903       .  S
O328        C335   1.279       .  A
O329       Ni332   1.910       .  S
O329        C334   1.280       .  A
O330       Ni332   1.915       .  S
O330        C333   1.280       .  A
Ni331      Ni332   2.388       .  S
C333       C1009   1.476       .  S
C334        C337   1.475       .  S
C335       C1274   1.481       .  S
C336        C365   1.480       .  S
C337        C338   1.414       .  A
C337        C342   1.405       .  A
C338        C339   1.404       .  A
C338        N343   1.438       .  S
C339        C340   1.400       .  A
C339        H344   1.084       .  S
C340        C345   1.471       .  S
C340        C341   1.405       .  A
C341        C342   1.403       .  A
C341        N346   1.438       .  S
C342        H347   1.084       .  S
N343        H363   1.046       .  S
N343        H364   1.046       .  S
C345        C348   1.398       .  A
C345        C352   1.406       .  A
N346        H361   1.046       .  S
N346        H362   1.046       .  S
C348        C349   1.403       .  A
C348        H353   1.084       .  S
C349        C350   1.415       .  A
C349        N354   1.438       .  S
C350        C351   1.406       .  A
C351        C352   1.402       .  A
C351        H355   1.083       .  S
C352        N356   1.438       .  S
N354        H357   1.046       .  S
N354        H358   1.046       .  S
N356        H359   1.046       .  S
N356        H360   1.046       .  S
C365        C366   1.414       .  A
C365        C370   1.407       .  A
C366        C367   1.404       .  A
C366        N371   1.438       .  S
C367        C368   1.404       .  A
C367        H372   1.084       .  S
C368        C373   1.477       .  S
C368        C369   1.405       .  A
C369        C370   1.399       .  A
C369        N374   1.438       .  S
C370        H375   1.083       .  S
N371        H391   1.046       .  S
N371        H392   1.046       .  S
C373        C376   1.403       .  A
C373        C380   1.405       .  A
N374        H389   1.046       .  S
N374        H390   1.045       .  S
C376        C377   1.404       .  A
C376        H381   1.084       .  S
C377        C378   1.416       .  A
C377        N382   1.438       .  S
C378        C379   1.408       .  A
C379        C380   1.400       .  A
C379        H383   1.083       .  S
C380        N384   1.438       .  S
N382        H385   1.046       .  S
N382        H386   1.046       .  S
N384        H387   1.046       .  S
N384        H388   1.046       .  S
C393        C394   1.414       .  A
C393        C398   1.406       .  A
C394        C395   1.401       .  A
C394        N399   1.438       .  S
C395        C396   1.402       .  A
C395        H400   1.084   1_455  S
C396        C401   1.476   1_455  S
C396        C397   1.408       .  A
C397        C398   1.399       .  A
C397        N402   1.438       .  S
C398        H403   1.083       .  S
N399        H419   1.046       .  S
N399        H420   1.046       .  S
C401        C404   1.402       .  A
C401        C408   1.409       .  A
N402        H417   1.046       .  S
N402        H418   1.045       .  S
C404        C405   1.399       .  A
C404        H409   1.084       .  S
C405        C406   1.413       .  A
C405        N410   1.438       .  S
C406        C407   1.405       .  A
C407        C408   1.401       .  A
C407        H411   1.084       .  S
C408        N412   1.438       .  S
N410        H413   1.046       .  S
N410        H414   1.045       .  S
N412        H415   1.046       .  S
N412        H416   1.045       .  S
C421        C422   1.410       .  A
C421        C426   1.405       .  A
C422        C423   1.400       .  A
C422        N427   1.438       .  S
C423        C424   1.401       .  A
C423        H428   1.084       .  S
C424        C429   1.475   1_655  S
C424        C425   1.408       .  A
C425        C426   1.405       .  A
C425        N430   1.438       .  S
C426        H431   1.084       .  S
N427        H447   1.046       .  S
N427        H448   1.046       .  S
C429        C432   1.403       .  A
C429        C436   1.408       .  A
N430        H445   1.046       .  S
N430        H446   1.046       .  S
C432        C433   1.406       .  A
C432        H437   1.084       .  S
C433        C434   1.411       .  A
C433        N438   1.438       .  S
C434        C435   1.402       .  A
C435        C436   1.398       .  A
C435        H439   1.084       .  S
C436        N440   1.438   1_455  S
N438        H441   1.046       .  S
N438        H442   1.046       .  S
N440        H443   1.046   1_655  S
N440        H444   1.046       .  S
C449        C450   1.415       .  A
C449        C454   1.406       .  A
C450        C451   1.406       .  A
C450        N455   1.438       .  S
C451        C452   1.404       .  A
C451        H456   1.083       .  S
C452        C457   1.494       .  S
C452        C453   1.413       .  A
C453        C454   1.408       .  A
C453        N458   1.438       .  S
C454        H459   1.084       .  S
N455        H475   1.046       .  S
N455        H476   1.046       .  S
C457        C460   1.406       .  A
C457        C464   1.415       .  A
N458        H473   1.046       .  S
N458        H474   1.045       .  S
C460        C461   1.406       .  A
C460        H465   1.083       .  S
C461        C462   1.410       .  A
C461        N466   1.438       .  S
C462        C463   1.402       .  A
C463        C464   1.408       .  A
C463        H467   1.084       .  S
C464        N468   1.438       .  S
N466        H469   1.046       .  S
N466        H470   1.045       .  S
N468        H471   1.046       .  S
N468        H472   1.045       .  S
C477        C478   1.415       .  A
C477        C482   1.407       .  A
C478        C479   1.404       .  A
C478        N483   1.438       .  S
C479        C480   1.402       .  A
C479        H484   1.083       .  S
C480        C485   1.489       .  S
C480        C481   1.412       .  A
C481        C482   1.407       .  A
C481        N486   1.438       .  S
C482        H487   1.084       .  S
N483        H503   1.046       .  S
N483        H504   1.046       .  S
C485        C488   1.401       .  A
C485        C492   1.411       .  A
N486        H501   1.046       .  S
N486        H502   1.046       .  S
C488        C489   1.403       .  A
C488        H493   1.084       .  S
C489        C490   1.419       .  A
C489        N494   1.438       .  S
C490        C491   1.409       .  A
C491        C492   1.408       .  A
C491        H495   1.083       .  S
C492        N496   1.438       .  S
N494        H497   1.046       .  S
N494        H498   1.046       .  S
N496        H499   1.046       .  S
N496        H500   1.045       .  S
C505        C506   1.411       .  A
C505        C510   1.403       .  A
C506        C507   1.402       .  A
C506        N511   1.438       .  S
C507        C508   1.402       .  A
C507        H512   1.084       .  S
C508        C513   1.480       .  S
C508        C509   1.411       .  A
C509        C510   1.404       .  A
C509        N514   1.438       .  S
C510        H515   1.084       .  S
N511        H531   1.046       .  S
N511        H532   1.046       .  S
C513        C516   1.402       .  A
C513        C520   1.410       .  A
N514        H529   1.046       .  S
N514        H530   1.046       .  S
C516        C517   1.404       .  A
C516        H521   1.084       .  S
C517        C518   1.414       .  A
C517        N522   1.438       .  S
C518        C519   1.403       .  A
C519        C520   1.402       .  A
C519        H523   1.084       .  S
C520        N524   1.438       .  S
N522        H525   1.045       .  S
N522        H526   1.045       .  S
N524        H527   1.046       .  S
N524        H528   1.045       .  S
C533        C534   1.417       .  A
C533        C538   1.407       .  A
C534        C535   1.409       .  A
C534        N539   1.438       .  S
C535        C536   1.404       .  A
C535        H540   1.084       .  S
C536        C541   1.484   1_554  S
C536        C537   1.408       .  A
C537        C538   1.400       .  A
C537        N542   1.439   1_554  S
C538        H543   1.083       .  S
N539        H559   1.046       .  S
N539        H560   1.046       .  S
C541        C544   1.404       .  A
C541        C548   1.408       .  A
N542        H557   1.046   1_556  S
N542        H558   1.046       .  S
C544        C545   1.407       .  A
C544        H549   1.084       .  S
C545        C546   1.416       .  A
C545        N550   1.438       .  S
C546        C547   1.409       .  A
C547        C548   1.402       .  A
C547        H551   1.083       .  S
C548        N552   1.438   1_556  S
N550        H553   1.046       .  S
N550        H554   1.046       .  S
N552        H555   1.046   1_554  S
N552        H556   1.046       .  S
C561        C562   1.416       .  A
C561        C566   1.407       .  A
C562        C563   1.408       .  A
C562        N567   1.438       .  S
C563        C564   1.403       .  A
C563        H568   1.084       .  S
C564        C569   1.489       .  S
C564        C565   1.410       .  A
C565        C566   1.405       .  A
C565        N570   1.438       .  S
C566        H571   1.083       .  S
N567        H587   1.046       .  S
N567        H588   1.046       .  S
C569        C572   1.403       .  A
C569        C576   1.412       .  A
N570        H585   1.046       .  S
N570        H586   1.046       .  S
C572        C573   1.406       .  A
C572        H577   1.084       .  S
C573        C574   1.413       .  A
C573        N578   1.438       .  S
C574        C575   1.404       .  A
C575        C576   1.407       .  A
C575        H579   1.084       .  S
C576        N580   1.438       .  S
N578        H581   1.046       .  S
N578        H582   1.046       .  S
N580        H583   1.046       .  S
N580        H584   1.046       .  S
C589        C590   1.410       .  A
C589        C594   1.404       .  A
C590        C591   1.401       .  A
C590        N595   1.438       .  S
C591        C592   1.403       .  A
C591        H596   1.084       .  S
C592        C597   1.485   1_455  S
C592        C593   1.412       .  A
C593        C594   1.406       .  A
C593        N598   1.438   1_455  S
C594        H599   1.084       .  S
N595        H615   1.045       .  S
N595        H616   1.046       .  S
C597        C600   1.404       .  A
C597        C604   1.412       .  A
N598        H613   1.046   1_655  S
N598        H614   1.046       .  S
C600        C601   1.405       .  A
C600        H605   1.083       .  S
C601        C602   1.411       .  A
C601        N606   1.438       .  S
C602        C603   1.401       .  A
C603        C604   1.402       .  A
C603        H607   1.084       .  S
C604        N608   1.438       .  S
N606        H609   1.046       .  S
N606        H610   1.046       .  S
N608        H611   1.046       .  S
N608        H612   1.045       .  S
C617        C618   1.414       .  A
C617        C622   1.406       .  A
C618        C619   1.403       .  A
C618        N623   1.438       .  S
C619        C620   1.400       .  A
C619        H624   1.084       .  S
C620        C625   1.477       .  S
C620        C621   1.408       .  A
C621        C622   1.403       .  A
C621        N626   1.438       .  S
C622        H627   1.083       .  S
N623        H643   1.046       .  S
N623        H644   1.046       .  S
C625        C628   1.401       .  A
C625        C632   1.409   1_565  A
N626        H641   1.046       .  S
N626        H642   1.046       .  S
C628        C629   1.402   1_565  A
C628        H633   1.084       .  S
C629        C630   1.411       .  A
C629        N634   1.438       .  S
C630        C631   1.404       .  A
C631        C632   1.405       .  A
C631        H635   1.084       .  S
C632        N636   1.437       .  S
N634        H637   1.046       .  S
N634        H638   1.046       .  S
N636        H639   1.046       .  S
N636        H640   1.046   1_545  S
C645        C646   1.413       .  A
C645        C650   1.405       .  A
C646        C647   1.404       .  A
C646        N651   1.438       .  S
C647        C648   1.400       .  A
C647        H652   1.084       .  S
C648        C653   1.471       .  S
C648        C649   1.405       .  A
C649        C650   1.401       .  A
C649        N654   1.438       .  S
C650        H655   1.084       .  S
N651        H671   1.046       .  S
N651        H672   1.046       .  S
C653        C656   1.398       .  A
C653        C660   1.405       .  A
N654        H669   1.046       .  S
N654        H670   1.046       .  S
C656        C657   1.404       .  A
C656        H661   1.084       .  S
C657        C658   1.416       .  A
C657        N662   1.438       .  S
C658        C659   1.407       .  A
C659        C660   1.402       .  A
C659        H663   1.083       .  S
C660        N664   1.438       .  S
N662        H665   1.046       .  S
N662        H666   1.045       .  S
N664        H667   1.046       .  S
N664        H668   1.046       .  S
C673        C674   1.416       .  A
C673        C678   1.406       .  A
C674        C675   1.401       .  A
C674        N679   1.438       .  S
C675        C676   1.397       .  A
C675        H680   1.084       .  S
C676        C681   1.469       .  S
C676        C677   1.406       .  A
C677        C678   1.404       .  A
C677        N682   1.438       .  S
C678        H683   1.084       .  S
N679        H699   1.046       .  S
N679        H700   1.046       .  S
C681        C684   1.400   1_565  A
C681        C688   1.406   1_565  A
N682        H697   1.046       .  S
N682        H698   1.045       .  S
C684        C685   1.405       .  A
C684        H689   1.084       .  S
C685        C686   1.413       .  A
C685        N690   1.438       .  S
C686        C687   1.403       .  A
C687        C688   1.399       .  A
C687        H691   1.084       .  S
C688        N692   1.438   1_545  S
N690        H693   1.046       .  S
N690        H694   1.046       .  S
N692        H695   1.046       .  S
N692        H696   1.045       .  S
C701        C702   1.419       .  A
C701        C706   1.404       .  A
C702        C703   1.401       .  A
C702        N707   1.440       .  S
C703        C704   1.404       .  A
C703        H708   1.084       .  S
C704        C709   1.491       .  S
C704        C705   1.413       .  A
C705        C706   1.407       .  A
C705        N710   1.438       .  S
C706        H711   1.084       .  S
N707        H727   1.043       .  S
N707        H728   1.045       .  S
C709        C712   1.405       .  A
C709        C716   1.414       .  A
N710        H725   1.046       .  S
N710        H726   1.046       .  S
C712        C713   1.405       .  A
C712        H717   1.083       .  S
C713        C714   1.412       .  A
C713        N718   1.439       .  S
C714        C715   1.402       .  A
C715        C716   1.405       .  A
C715        H719   1.084       .  S
C716        N720   1.438       .  S
N718        H721   1.046       .  S
N718        H722   1.046       .  S
N720        H723   1.046       .  S
N720        H724   1.045       .  S
C729        C730   1.415       .  A
C729        C734   1.404       .  A
C730        C731   1.407       .  A
C730        N735   1.438       .  S
C731        C732   1.400       .  A
C731        H736   1.084       .  S
C732        C737   1.474   1_554  S
C732        C733   1.407       .  A
C733        C734   1.402       .  A
C733        N738   1.438       .  S
C734        H739   1.084       .  S
N735        H755   1.046       .  S
N735        H756   1.046       .  S
C737        C740   1.398       .  A
C737        C744   1.406       .  A
N738        H753   1.046       .  S
N738        H754   1.045   1_554  S
C740        C741   1.404       .  A
C740        H745   1.084   1_556  S
C741        C742   1.419       .  A
C741        N746   1.438       .  S
C742        C743   1.407       .  A
C743        C744   1.404       .  A
C743        H747   1.083       .  S
C744        N748   1.438       .  S
N746        H749   1.046       .  S
N746        H750   1.045       .  S
N748        H751   1.046       .  S
N748        H752   1.045       .  S
C757        C758   1.418       .  A
C757        C762   1.407       .  A
C758        C759   1.409   1_455  A
C758        N763   1.437       .  S
C759        C760   1.402       .  A
C759        H764   1.084       .  S
C760        C765   1.482       .  S
C760        C761   1.407   1_655  A
C761        C762   1.400       .  A
C761        N766   1.438       .  S
C762        H767   1.083       .  S
N763        H783   1.046       .  S
N763        H784   1.046       .  S
C765        C768   1.400       .  A
C765        C772   1.409       .  A
N766        H781   1.046       .  S
N766        H782   1.045       .  S
C768        C769   1.396       .  A
C768        H773   1.084       .  S
C769        C770   1.414       .  A
C769        N774   1.433       .  S
C770        C771   1.410       .  A
C771        C772   1.409       .  A
C771        H775   1.083       .  S
C772        N776   1.437       .  S
N774        H777   1.046       .  S
N774        H778   1.046       .  S
N776        H779   1.046       .  S
N776        H780   1.046       .  S
C785        C786   1.417       .  A
C785        C790   1.406       .  A
C786        C787   1.402       .  A
C786        N791   1.438       .  S
C787        C788   1.400       .  A
C787        H792   1.084       .  S
C788        C793   1.475       .  S
C788        C789   1.407       .  A
C789        C790   1.400       .  A
C789        N794   1.438       .  S
C790        H795   1.083       .  S
N791        H811   1.046       .  S
N791        H812   1.046       .  S
C793        C796   1.401       .  A
C793        C800   1.408       .  A
N794        H809   1.046       .  S
N794        H810   1.046       .  S
C796        C797   1.400       .  A
C796        H801   1.084       .  S
C797        C798   1.414       .  A
C797        N802   1.438       .  S
C798        C799   1.405       .  A
C799        C800   1.401       .  A
C799        H803   1.083       .  S
C800        N804   1.438       .  S
N802        H805   1.046       .  S
N802        H806   1.046       .  S
N804        H807   1.046       .  S
N804        H808   1.046       .  S
C813        C814   1.419       .  A
C813        C818   1.409       .  A
C814        C815   1.400       .  A
C814        N819   1.438       .  S
C815        C816   1.398       .  A
C815        H820   1.084       .  S
C816        C821   1.477       .  S
C816        C817   1.408       .  A
C817        C818   1.406       .  A
C817        N822   1.438       .  S
C818        H823   1.083       .  S
N819        H839   1.046       .  S
N819        H840   1.046       .  S
C821        C824   1.401       .  A
C821        C828   1.407       .  A
N822        H837   1.046       .  S
N822        H838   1.046       .  S
C824        C825   1.407       .  A
C824        H829   1.084       .  S
C825        C826   1.417       .  A
C825        N830   1.438       .  S
C826        C827   1.405       .  A
C827        C828   1.399       .  A
C827        H831   1.083       .  S
C828        N832   1.438       .  S
N830        H833   1.046       .  S
N830        H834   1.045       .  S
N832        H835   1.046       .  S
N832        H836   1.046       .  S
C841        C842   1.419       .  A
C841        C846   1.408       .  A
C842        C843   1.401       .  A
C842        N847   1.438       .  S
C843        C844   1.398       .  A
C843        H848   1.084       .  S
C844        C849   1.471       .  S
C844        C845   1.405       .  A
C845        C846   1.402       .  A
C845        N850   1.438       .  S
C846        H851   1.083       .  S
N847        H867   1.046       .  S
N847        H868   1.046       .  S
C849        C852   1.399       .  A
C849        C856   1.407       .  A
N850        H865   1.046       .  S
N850        H866   1.046       .  S
C852        C853   1.400       .  A
C852        H857   1.084       .  S
C853        C854   1.414       .  A
C853        N858   1.439       .  S
C854        C855   1.405       .  A
C855        C856   1.402       .  A
C855        H859   1.084       .  S
C856        N860   1.438       .  S
N858        H861   1.046       .  S
N858        H862   1.046       .  S
N860        H863   1.046       .  S
N860        H864   1.046       .  S
C869        C870   1.415       .  A
C869        C874   1.405       .  A
C870        C871   1.405       .  A
C870        N875   1.438       .  S
C871        C872   1.399       .  A
C871        H876   1.084       .  S
C872        C877   1.474       .  S
C872        C873   1.407       .  A
C873        C874   1.403       .  A
C873        N878   1.438       .  S
C874        H879   1.084       .  S
N875        H895   1.046       .  S
N875        H896   1.046       .  S
C877        C880   1.399       .  A
C877        C884   1.404       .  A
N878        H893   1.046       .  S
N878        H894   1.045       .  S
C880        C881   1.407       .  A
C880        H885   1.084       .  S
C881        C882   1.419       .  A
C881        N886   1.438       .  S
C882        C883   1.409       .  A
C883        C884   1.402       .  A
C883        H887   1.083       .  S
C884        N888   1.438       .  S
N886        H889   1.046       .  S
N886        H890   1.046       .  S
N888        H891   1.046       .  S
N888        H892   1.045       .  S
C897        C898   1.418       .  A
C897        C902   1.408       .  A
C898        C899   1.404       .  A
C898        N903   1.438       .  S
C899        C900   1.399       .  A
C899        H904   1.084       .  S
C900        C905   1.479       .  S
C900        C901   1.408       .  A
C901        C902   1.405       .  A
C901        N906   1.438       .  S
C902        H907   1.083       .  S
N903        H923   1.046       .  S
N903        H924   1.046       .  S
C905        C908   1.400       .  A
C905        C912   1.406       .  A
N906        H921   1.046       .  S
N906        H922   1.046       .  S
C908        C909   1.407       .  A
C908        H913   1.084       .  S
C909        C910   1.420       .  A
C909        N914   1.438       .  S
C910        C911   1.408       .  A
C911        C912   1.402       .  A
C911        H915   1.083       .  S
C912        N916   1.438       .  S
N914        H917   1.046       .  S
N914        H918   1.045       .  S
N916        H919   1.046       .  S
N916        H920   1.046       .  S
C925        C926   1.411       .  A
C925        C930   1.403       .  A
C926        C927   1.401       .  A
C926        N931   1.438       .  S
C927        C928   1.402       .  A
C927        H932   1.084       .  S
C928        C933   1.479       .  S
C928        C929   1.411       .  A
C929        C930   1.403       .  A
C929        N934   1.438       .  S
C930        H935   1.084       .  S
N931        H951   1.046       .  S
N931        H952   1.046       .  S
C933        C936   1.403       .  A
C933        C940   1.413       .  A
N934        H949   1.046       .  S
N934        H950   1.046       .  S
C936        C937   1.403       .  A
C936        H941   1.084       .  S
C937        C938   1.408       .  A
C937        N942   1.438       .  S
C938        C939   1.399       .  A
C939        C940   1.400       .  A
C939        H943   1.084       .  S
C940        N944   1.438       .  S
N942        H945   1.046       .  S
N942        H946   1.046       .  S
N944        H947   1.046       .  S
N944        H948   1.046       .  S
C953        C954   1.410       .  A
C953        C958   1.401       .  A
C954        C955   1.404       .  A
C954        N959   1.438       .  S
C955        C956   1.405       .  A
C955        H960   1.083       .  S
C956        C961   1.489       .  S
C956        C957   1.414       .  A
C957        C958   1.404       .  A
C957        N962   1.438       .  S
C958        H963   1.084       .  S
N959        H979   1.046       .  S
N959        H980   1.046       .  S
C961        C964   1.404       .  A
C961        C968   1.414       .  A
N962        H977   1.046       .  S
N962        H978   1.046       .  S
C964        C965   1.403       .  A
C964        H969   1.083       .  S
C965        C966   1.412       .  A
C965        N970   1.438       .  S
C966        C967   1.401       .  A
C967        C968   1.404       .  A
C967        H971   1.084       .  S
C968        N972   1.438       .  S
N970        H973   1.046       .  S
N970        H974   1.045       .  S
N972        H975   1.046       .  S
N972        H976   1.046       .  S
C981        C982   1.414       .  A
C981        C986   1.406       .  A
C982        C983   1.405   1_545  A
C982        N987   1.438       .  S
C983        C984   1.403       .  A
C983        H988   1.084       .  S
C984        C989   1.488       .  S
C984        C985   1.411   1_565  A
C985        C986   1.407       .  A
C985        N990   1.438       .  S
C986        H991   1.084       .  S
N987       H1007   1.046       .  S
N987       H1008   1.046       .  S
C989        C992   1.402       .  A
C989        C996   1.410       .  A
N990       H1005   1.046       .  S
N990       H1006   1.046   1_545  S
C992        C993   1.404       .  A
C992        H997   1.083       .  S
C993        C994   1.417       .  A
C993        N998   1.438       .  S
C994        C995   1.408       .  A
C995        C996   1.408       .  A
C995        H999   1.083       .  S
C996       N1000   1.438       .  S
N998       H1001   1.046       .  S
N998       H1002   1.046       .  S
N1000      H1003   1.046       .  S
N1000      H1004   1.046       .  S
C1009      C1010   1.409       .  A
C1009      C1014   1.403       .  A
C1010      C1011   1.404       .  A
C1010      N1015   1.438       .  S
C1011      C1012   1.406       .  A
C1011      H1016   1.083       .  S
C1012      C1017   1.494       .  S
C1012      C1013   1.416       .  A
C1013      C1014   1.408       .  A
C1013      N1018   1.438       .  S
C1014      H1019   1.084       .  S
N1015      H1035   1.046       .  S
N1015      H1036   1.046       .  S
C1017      C1020   1.406       .  A
C1017      C1024   1.415       .  A
N1018      H1033   1.046       .  S
N1018      H1034   1.045       .  S
C1020      C1021   1.407       .  A
C1020      H1025   1.083       .  S
C1021      C1022   1.412       .  A
C1021      N1026   1.438       .  S
C1022      C1023   1.402       .  A
C1023      C1024   1.406       .  A
C1023      H1027   1.084       .  S
C1024      N1028   1.438       .  S
N1026      H1029   1.046       .  S
N1026      H1030   1.046       .  S
N1028      H1031   1.046       .  S
N1028      H1032   1.046       .  S
C1037      C1038   1.419       .  A
C1037      C1042   1.408       .  A
C1038      C1039   1.405       .  A
C1038      N1043   1.438       .  S
C1039      C1040   1.400       .  A
C1039      H1044   1.084       .  S
C1040      C1045   1.484       .  S
C1040      C1041   1.408       .  A
C1041      C1042   1.406       .  A
C1041      N1046   1.438       .  S
C1042      H1047   1.083       .  S
N1043      H1063   1.045       .  S
N1043      H1064   1.046       .  S
C1045      C1048   1.401       .  A
C1045      C1052   1.408       .  A
N1046      H1061   1.046       .  S
N1046      H1062   1.046       .  S
C1048      C1049   1.408       .  A
C1048      H1053   1.084       .  S
C1049      C1050   1.420       .  A
C1049      N1054   1.438       .  S
C1050      C1051   1.407       .  A
C1051      C1052   1.404       .  A
C1051      H1055   1.083       .  S
C1052      N1056   1.438       .  S
N1054      H1057   1.046       .  S
N1054      H1058   1.046       .  S
N1056      H1059   1.045       .  S
N1056      H1060   1.046       .  S
C1065      C1066   1.416       .  A
C1065      C1070   1.407       .  A
C1066      C1067   1.403   1_545  A
C1066      N1071   1.438       .  S
C1067      C1068   1.398       .  A
C1067      H1072   1.084       .  S
C1068      C1073   1.475       .  S
C1068      C1069   1.407   1_565  A
C1069      C1070   1.407       .  A
C1069      N1074   1.438       .  S
C1070      H1075   1.083       .  S
N1071      H1091   1.045       .  S
N1071      H1092   1.046       .  S
C1073      C1076   1.399       .  A
C1073      C1080   1.407       .  A
N1074      H1089   1.046       .  S
N1074      H1090   1.045       .  S
C1076      C1077   1.406       .  A
C1076      H1081   1.084       .  S
C1077      C1078   1.417       .  A
C1077      N1082   1.438       .  S
C1078      C1079   1.407       .  A
C1079      C1080   1.403       .  A
C1079      H1083   1.083       .  S
C1080      N1084   1.438       .  S
N1082      H1085   1.046       .  S
N1082      H1086   1.046       .  S
N1084      H1087   1.046       .  S
N1084      H1088   1.045       .  S
C1093      C1094   1.409       .  A
C1093      C1098   1.404       .  A
C1094      C1095   1.404       .  A
C1094      N1099   1.438       .  S
C1095      C1096   1.404       .  A
C1095      H1100   1.084       .  S
C1096      C1101   1.483       .  S
C1096      C1097   1.411       .  A
C1097      C1098   1.406       .  A
C1097      N1102   1.438       .  S
C1098      H1103   1.084       .  S
N1099      H1119   1.046       .  S
N1099      H1120   1.046       .  S
C1101      C1104   1.405       .  A
C1101      C1108   1.411       .  A
N1102      H1117   1.046       .  S
N1102      H1118   1.046       .  S
C1104      C1105   1.408       .  A
C1104      H1109   1.084       .  S
C1105      C1106   1.410       .  A
C1105      N1110   1.438       .  S
C1106      C1107   1.399       .  A
C1107      C1108   1.400       .  A
C1107      H1111   1.082       .  S
C1108      N1112   1.438       .  S
N1110      H1113   1.046       .  S
N1110      H1114   1.045       .  S
N1112      H1115   1.046       .  S
N1112      H1116   1.046       .  S
C1121      C1122   1.417       .  A
C1121      C1126   1.407       .  A
C1122      C1123   1.409       .  A
C1122      N1127   1.437       .  S
C1123      C1124   1.401       .  A
C1123      H1128   1.084       .  S
C1124      C1129   1.477       .  S
C1124      C1125   1.405       .  A
C1125      C1126   1.401       .  A
C1125      N1130   1.438       .  S
C1126      H1131   1.083       .  S
N1127      H1147   1.046       .  S
N1127      H1148   1.046       .  S
C1129      C1132   1.402       .  A
C1129      C1136   1.407       .  A
N1130      H1145   1.046       .  S
N1130      H1146   1.046       .  S
C1132      C1133   1.405       .  A
C1132      H1137   1.084       .  S
C1133      C1134   1.410       .  A
C1133      N1138   1.438       .  S
C1134      C1135   1.404       .  A
C1135      C1136   1.405       .  A
C1135      H1139   1.084       .  S
C1136      N1140   1.438       .  S
N1138      H1141   1.046       .  S
N1138      H1142   1.046       .  S
N1140      H1143   1.046       .  S
N1140      H1144   1.046       .  S
C1149      C1150   1.416       .  A
C1149      C1154   1.408       .  A
C1150      C1151   1.403       .  A
C1150      N1155   1.438       .  S
C1151      C1152   1.401       .  A
C1151      H1156   1.084       .  S
C1152      C1157   1.479       .  S
C1152      C1153   1.408       .  A
C1153      C1154   1.402       .  A
C1153      N1158   1.438       .  S
C1154      H1159   1.083       .  S
N1155      H1175   1.046       .  S
N1155      H1176   1.046       .  S
C1157      C1160   1.401       .  A
C1157      C1164   1.409       .  A
N1158      H1173   1.046       .  S
N1158      H1174   1.046       .  S
C1160      C1161   1.400       .  A
C1160      H1165   1.084       .  S
C1161      C1162   1.413       .  A
C1161      N1166   1.438       .  S
C1162      C1163   1.405       .  A
C1163      C1164   1.405       .  A
C1163      H1167   1.084       .  S
C1164      N1168   1.438       .  S
N1166      H1169   1.046       .  S
N1166      H1170   1.046       .  S
N1168      H1171   1.046       .  S
N1168      H1172   1.046       .  S
C1177      C1178   1.411       .  A
C1177      C1182   1.400       .  A
C1178      C1179   1.401       .  A
C1178      N1183   1.439       .  S
C1179      C1180   1.402       .  A
C1179      H1184   1.084       .  S
C1180      C1185   1.480       .  S
C1180      C1181   1.412       .  A
C1181      C1182   1.402       .  A
C1181      N1186   1.438       .  S
C1182      H1187   1.084       .  S
N1183      H1203   1.045       .  S
N1183      H1204   1.046       .  S
C1185      C1188   1.403       .  A
C1185      C1192   1.412       .  A
N1186      H1201   1.046       .  S
N1186      H1202   1.045       .  S
C1188      C1189   1.401       .  A
C1188      H1193   1.084       .  S
C1189      C1190   1.409       .  A
C1189      N1194   1.438       .  S
C1190      C1191   1.401       .  A
C1191      C1192   1.403       .  A
C1191      H1195   1.084       .  S
C1192      N1196   1.438       .  S
N1194      H1197   1.046       .  S
N1194      H1198   1.046       .  S
N1196      H1199   1.046       .  S
N1196      H1200   1.046       .  S
C1205      C1206   1.420       .  A
C1205      C1210   1.408       .  A
C1206      C1207   1.405       .  A
C1206      N1211   1.438       .  S
C1207      C1208   1.400       .  A
C1207      H1212   1.084       .  S
C1208      C1213   1.484       .  S
C1208      C1209   1.409       .  A
C1209      C1210   1.404       .  A
C1209      N1214   1.438       .  S
C1210      H1215   1.083       .  S
N1211      H1231   1.046       .  S
N1211      H1232   1.046       .  S
C1213      C1216   1.400       .  A
C1213      C1220   1.409       .  A
N1214      H1229   1.046       .  S
N1214      H1230   1.046       .  S
C1216      C1217   1.405       .  A
C1216      H1221   1.084       .  S
C1217      C1218   1.420       .  A
C1217      N1222   1.438       .  S
C1218      C1219   1.408       .  A
C1219      C1220   1.405       .  A
C1219      H1223   1.083       .  S
C1220      N1224   1.438       .  S
N1222      H1225   1.046       .  S
N1222      H1226   1.046       .  S
N1224      H1227   1.045       .  S
N1224      H1228   1.046       .  S
C1233      C1234   1.414       .  A
C1233      C1238   1.406       .  A
C1234      C1235   1.405       .  A
C1234      N1239   1.438       .  S
C1235      C1236   1.402       .  A
C1235      H1240   1.084       .  S
C1236      C1241   1.475       .  S
C1236      C1237   1.406       .  A
C1237      C1238   1.400       .  A
C1237      N1242   1.438       .  S
C1238      H1243   1.084       .  S
N1239      H1259   1.045       .  S
N1239      H1260   1.046       .  S
C1241      C1244   1.402       .  A
C1241      C1248   1.408       .  A
N1242      H1257   1.046       .  S
N1242      H1258   1.046       .  S
C1244      C1245   1.404       .  A
C1244      H1249   1.084       .  S
C1245      C1246   1.412       .  A
C1245      N1250   1.438       .  S
C1246      C1247   1.403       .  A
C1247      C1248   1.401       .  A
C1247      H1251   1.084       .  S
C1248      N1252   1.438       .  S
N1250      H1253   1.046       .  S
N1250      H1254   1.046       .  S
N1252      H1255   1.046       .  S
N1252      H1256   1.046       .  S
C1261      C1262   1.418       .  A
C1261      C1266   1.407       .  A
C1262      C1263   1.402       .  A
C1262      N1267   1.438       .  S
C1263      C1264   1.397       .  A
C1263      H1268   1.084       .  S
C1264      C1269   1.472       .  S
C1264      C1265   1.406       .  A
C1265      C1266   1.403       .  A
C1265      N1270   1.438       .  S
C1266      H1271   1.083       .  S
N1267      H1287   1.046       .  S
N1267      H1288   1.046       .  S
C1269      C1272   1.397       .  A
C1269      C1276   1.406       .  A
N1270      H1285   1.046       .  S
N1270      H1286   1.046       .  S
C1272      C1273   1.401       .  A
C1272      H1277   1.084       .  S
C1273      C1274   1.418       .  A
C1273      N1278   1.438       .  S
C1274      C1275   1.407       .  A
C1275      C1276   1.403       .  A
C1275      H1279   1.083       .  S
C1276      N1280   1.437       .  S
N1278      H1281   1.046       .  S
N1278      H1282   1.046       .  S
N1280      H1283   1.046       .  S
N1280      H1284   1.046       .  S
C1289      C1290   1.414       .  A
C1289      C1294   1.404       .  A
C1290      C1291   1.402       .  A
C1290      N1295   1.438       .  S
C1291      C1292   1.399       .  A
C1291      H1296   1.084       .  S
C1292      C1297   1.468       .  S
C1292      C1293   1.405       .  A
C1293      C1294   1.400       .  A
C1293      N1298   1.438       .  S
C1294      H1299   1.084       .  S
N1295      H1315   1.045       .  S
N1295      H1316   1.046       .  S
C1297      C1300   1.399       .  A
C1297      C1304   1.404       .  A
N1298      H1313   1.046       .  S
N1298      H1314   1.046       .  S
C1300      C1301   1.404       .  A
C1300      H1305   1.084       .  S
C1301      C1302   1.417       .  A
C1301      N1306   1.438       .  S
C1302      C1303   1.406       .  A
C1303      C1304   1.397       .  A
C1303      H1307   1.083       .  S
C1304      N1308   1.438       .  S
N1306      H1309   1.046       .  S
N1306      H1310   1.046       .  S
N1308      H1311   1.046       .  S
N1308      H1312   1.046       .  S
C1317      C1318   1.409       .  A
C1317      C1322   1.404       .  A
C1318      C1319   1.401       .  A
C1318      N1323   1.432       .  S
C1319      C1320   1.400       .  A
C1319      H1324   1.084       .  S
C1320      C1325   1.472       .  S
C1320      C1321   1.408       .  A
C1321      C1322   1.402       .  A
C1321      N1326   1.438       .  S
C1322      H1327   1.084       .  S
N1323      H1343   1.046       .  S
N1323      H1344   1.046       .  S
C1325      C1328   1.399       .  A
C1325      C1332   1.406       .  A
N1326      H1341   1.046       .  S
N1326      H1342   1.046       .  S
C1328      C1329   1.403       .  A
C1328      H1333   1.084       .  S
C1329      C1330   1.415       .  A
C1329      N1334   1.438       .  S
C1330      C1331   1.407       .  A
C1331      C1332   1.403       .  A
C1331      H1335   1.084       .  S
C1332      N1336   1.438       .  S
N1334      H1337   1.046       .  S
N1334      H1338   1.046       .  S
N1336      H1339   1.046       .  S
N1336      H1340   1.046       .  S
C1345      C1346   1.415       .  A
C1345      C1350   1.405       .  A
C1346      C1347   1.401       .  A
C1346      N1351   1.439       .  S
C1347      C1348   1.402       .  A
C1347      H1352   1.084       .  S
C1348      C1353   1.484       .  S
C1348      C1349   1.410       .  A
C1349      C1350   1.406       .  A
C1349      N1354   1.437       .  S
C1350      H1355   1.084       .  S
N1351      H1371   1.045       .  S
N1351      H1372   1.046       .  S
C1353      C1356   1.402       .  A
C1353      C1360   1.410       .  A
N1354      H1369   1.046       .  S
N1354      H1370   1.046       .  S
C1356      C1357   1.405       .  A
C1356      H1361   1.083       .  S
C1357      C1358   1.417       .  A
C1357      N1362   1.438       .  S
C1358      C1359   1.407       .  A
C1359      C1360   1.403       .  A
C1359      H1363   1.083       .  S
C1360      N1364   1.438       .  S
N1362      H1365   1.046       .  S
N1362      H1366   1.046       .  S
N1364      H1367   1.046       .  S
N1364      H1368   1.046       .  S
C1373      C1374   1.415       .  A
C1373      C1378   1.405       .  A
C1374      C1375   1.401       .  A
C1374      N1379   1.439       .  S
C1375      C1376   1.398       .  A
C1375      H1380   1.084       .  S
C1376      C1381   1.470       .  S
C1376      C1377   1.407       .  A
C1377      C1378   1.404       .  A
C1377      N1382   1.439       .  S
C1378      H1383   1.084       .  S
N1379      H1399   1.046       .  S
N1379      H1400   1.046       .  S
C1381      C1384   1.399       .  A
C1381      C1388   1.406       .  A
N1382      H1397   1.046       .  S
N1382      H1398   1.043       .  S
C1384      C1385   1.406       .  A
C1384      H1389   1.084       .  S
C1385      C1386   1.420       .  A
C1385      N1390   1.438       .  S
C1386      C1387   1.407       .  A
C1387      C1388   1.398       .  A
C1387      H1391   1.083       .  S
C1388      N1392   1.440       .  S
N1390      H1393   1.046       .  S
N1390      H1394   1.046       .  S
N1392      H1395   1.046       .  S
N1392      H1396   1.043       .  S
C1401      C1402   1.412       .  A
C1401      C1406   1.403       .  A
C1402      C1403   1.400       .  A
C1402      N1407   1.439       .  S
C1403      C1404   1.401       .  A
C1403      H1408   1.084       .  S
C1404      C1409   1.484       .  S
C1404      C1405   1.413       .  A
C1405      C1406   1.408       .  A
C1405      N1410   1.438       .  S
C1406      H1411   1.084       .  S
N1407      H1427   1.046       .  S
N1407      H1428   1.046       .  S
C1409      C1412   1.402       .  A
C1409      C1416   1.414       .  A
N1410      H1425   1.046       .  S
N1410      H1426   1.046       .  S
C1412      C1413   1.402       .  A
C1412      H1417   1.084       .  S
C1413      C1414   1.411       .  A
C1413      N1418   1.439       .  S
C1414      C1415   1.400       .  A
C1415      C1416   1.406       .  A
C1415      H1419   1.084       .  S
C1416      N1420   1.438       .  S
N1418      H1421   1.046       .  S
N1418      H1422   1.046       .  S
N1420      H1423   1.046       .  S
N1420      H1424   1.046       .  S
C1429      C1430   1.420       .  A
C1429      C1434   1.408       .  A
C1430      C1431   1.408       .  A
C1430      N1435   1.438       .  S
C1431      C1432   1.400       .  A
C1431      H1436   1.084       .  S
C1432      C1437   1.483       .  S
C1432      C1433   1.407       .  A
C1433      C1434   1.406       .  A
C1433      N1438   1.438       .  S
C1434      H1439   1.083       .  S
N1435      H1455   1.046       .  S
N1435      H1456   1.046       .  S
C1437      C1440   1.401       .  A
C1437      C1444   1.407       .  A
N1438      H1453   1.046       .  S
N1438      H1454   1.046       .  S
C1440      C1441   1.407       .  A
C1440      H1445   1.084       .  S
C1441      C1442   1.417       .  A
C1441      N1446   1.438       .  S
C1442      C1443   1.409       .  A
C1443      C1444   1.407       .  A
C1443      H1447   1.083       .  S
C1444      N1448   1.438       .  S
N1446      H1449   1.046       .  S
N1446      H1450   1.046       .  S
N1448      H1451   1.046       .  S
N1448      H1452   1.046       .  S
C1457      C1458   1.420       .  A
C1457      C1462   1.409       .  A
C1458      C1459   1.403       .  A
C1458      N1463   1.438       .  S
C1459      C1460   1.398       .  A
C1459      H1464   1.084       .  S
C1460      C1465   1.474       .  S
C1460      C1461   1.405       .  A
C1461      C1462   1.403       .  A
C1461      N1466   1.438       .  S
C1462      H1467   1.083       .  S
N1463      H1483   1.046       .  S
N1463      H1484   1.046       .  S
C1465      C1468   1.400       .  A
C1465      C1472   1.407       .  A
N1466      H1481   1.046       .  S
N1466      H1482   1.046       .  S
C1468      C1469   1.405       .  A
C1468      H1473   1.084       .  S
C1469      C1470   1.414       .  A
C1469      N1474   1.438       .  S
C1470      C1471   1.404       .  A
C1471      C1472   1.401       .  A
C1471      H1475   1.084       .  S
C1472      N1476   1.438       .  S
N1474      H1477   1.046       .  S
N1474      H1478   1.046       .  S
N1476      H1479   1.046       .  S
N1476      H1480   1.046       .  S
C1485      C1486   1.419       .  A
C1485      C1490   1.408       .  A
C1486      C1487   1.408       .  A
C1486      N1491   1.438       .  S
C1487      C1488   1.400       .  A
C1487      H1492   1.084       .  S
C1488      C1493   1.479       .  S
C1488      C1489   1.406       .  A
C1489      C1490   1.403       .  A
C1489      N1494   1.438       .  S
C1490      H1495   1.083       .  S
N1491      H1511   1.046       .  S
N1491      H1512   1.046       .  S
C1493      C1496   1.399       .  A
C1493      C1500   1.408       .  A
N1494      H1509   1.046       .  S
N1494      H1510   1.045       .  S
C1496      C1497   1.406       .  A
C1496      H1501   1.084       .  S
C1497      C1498   1.416       .  A
C1497      N1502   1.438       .  S
C1498      C1499   1.407       .  A
C1499      C1500   1.407       .  A
C1499      H1503   1.083       .  S
C1500      N1504   1.438       .  S
N1502      H1505   1.046       .  S
N1502      H1506   1.046       .  S
N1504      H1507   1.046       .  S
N1504      H1508   1.045       .  S
C1513      C1514   1.408       .  A
C1513      C1518   1.401       .  A
C1514      C1515   1.402       .  A
C1514      N1519   1.438       .  S
C1515      C1516   1.405       .  A
C1515      H1520   1.083       .  S
C1516      C1521   1.482   1_554  S
C1516      C1517   1.411       .  A
C1517      C1518   1.401       .  A
C1517      N1522   1.438       .  S
C1518      H1523   1.084       .  S
N1519      H1539   1.045       .  S
N1519      H1540   1.046       .  S
C1521      C1524   1.405       .  A
C1521      C1528   1.411       .  A
N1522      H1537   1.046       .  S
N1522      H1538   1.045       .  S
C1524      C1525   1.402       .  A
C1524      H1529   1.083       .  S
C1525      C1526   1.411       .  A
C1525      N1530   1.438       .  S
C1526      C1527   1.403       .  A
C1527      C1528   1.401       .  A
C1527      H1531   1.084       .  S
C1528      N1532   1.438   1_556  S
N1530      H1533   1.046       .  S
N1530      H1534   1.046       .  S
N1532      H1535   1.046   1_554  S
N1532      H1536   1.045       .  S
C1541      C1542   1.417       .  A
C1541      C1546   1.407       .  A
C1542      C1543   1.408       .  A
C1542      N1547   1.437       .  S
C1543      C1544   1.402       .  A
C1543      H1548   1.084       .  S
C1544      C1549   1.481       .  S
C1544      C1545   1.408       .  A
C1545      C1546   1.401       .  A
C1545      N1550   1.439       .  S
C1546      H1551   1.083       .  S
N1547      H1567   1.046       .  S
N1547      H1568   1.046       .  S
C1549      C1552   1.400       .  A
C1549      C1556   1.408       .  A
N1550      H1565   1.046       .  S
N1550      H1566   1.046       .  S
C1552      C1553   1.405       .  A
C1552      H1557   1.084       .  S
C1553      C1554   1.418       .  A
C1553      N1558   1.438       .  S
C1554      C1555   1.407       .  A
C1555      C1556   1.405       .  A
C1555      H1559   1.083       .  S
C1556      N1560   1.438       .  S
N1558      H1561   1.046       .  S
N1558      H1562   1.046       .  S
N1560      H1563   1.046       .  S
N1560      H1564   1.046       .  S
C1569      C1570   1.418       .  A
C1569      C1574   1.406       .  A
C1570      C1571   1.404       .  A
C1570      N1575   1.438       .  S
C1571      C1572   1.398       .  A
C1571      H1576   1.084       .  S
C1572      C1577   1.473       .  S
C1572      C1573   1.406       .  A
C1573      C1574   1.402       .  A
C1573      N1578   1.438       .  S
C1574      H1579   1.083       .  S
N1575      H1595   1.045       .  S
N1575      H1596   1.046       .  S
C1577      C1580   1.400       .  A
C1577      C1584   1.406       .  A
N1578      H1593   1.046       .  S
N1578      H1594   1.046       .  S
C1580      C1581   1.403       .  A
C1580      H1585   1.084       .  S
C1581      C1582   1.413       .  A
C1581      N1586   1.438       .  S
C1582      C1583   1.404       .  A
C1583      C1584   1.403       .  A
C1583      H1587   1.084       .  S
C1584      N1588   1.437       .  S
N1586      H1589   1.046       .  S
N1586      H1590   1.046       .  S
N1588      H1591   1.046       .  S
N1588      H1592   1.046       .  S
C1597      C1598   1.417       .  A
C1597      C1602   1.407       .  A
C1598      C1599   1.402       .  A
C1598      N1603   1.438       .  S
C1599      C1600   1.400       .  A
C1599      H1604   1.084       .  S
C1600      C1605   1.476       .  S
C1600      C1601   1.407       .  A
C1601      C1602   1.402       .  A
C1601      N1606   1.438       .  S
C1602      H1607   1.083       .  S
N1603      H1623   1.046       .  S
N1603      H1624   1.046       .  S
C1605      C1608   1.400       .  A
C1605      C1612   1.407       .  A
N1606      H1621   1.046       .  S
N1606      H1622   1.046       .  S
C1608      C1609   1.403       .  A
C1608      H1613   1.084       .  S
C1609      C1610   1.417       .  A
C1609      N1614   1.438       .  S
C1610      C1611   1.406       .  A
C1611      C1612   1.401       .  A
C1611      H1615   1.083       .  S
C1612      N1616   1.438       .  S
N1614      H1617   1.046       .  S
N1614      H1618   1.045       .  S
N1616      H1619   1.046       .  S
N1616      H1620   1.046       .  S
C1625      C1626   1.417       .  A
C1625      C1630   1.408       .  A
C1626      C1627   1.403       .  A
C1626      N1631   1.438       .  S
C1627      C1628   1.399       .  A
C1627      H1632   1.084   1_556  S
C1628      C1633   1.473   1_556  S
C1628      C1629   1.405       .  A
C1629      C1630   1.401       .  A
C1629      N1634   1.438       .  S
C1630      H1635   1.083       .  S
N1631      H1651   1.046       .  S
N1631      H1652   1.046       .  S
C1633      C1636   1.400       .  A
C1633      C1640   1.406       .  A
N1634      H1649   1.046       .  S
N1634      H1650   1.046       .  S
C1636      C1637   1.401       .  A
C1636      H1641   1.084       .  S
C1637      C1638   1.413       .  A
C1637      N1642   1.438       .  S
C1638      C1639   1.406       .  A
C1639      C1640   1.403       .  A
C1639      H1643   1.084       .  S
C1640      N1644   1.438       .  S
N1642      H1645   1.046       .  S
N1642      H1646   1.046       .  S
N1644      H1647   1.046       .  S
N1644      H1648   1.046       .  S
C1653      C1654   1.414       .  A
C1653      C1658   1.406       .  A
C1654      C1655   1.399       .  A
C1654      N1659   1.439       .  S
C1655      C1656   1.399       .  A
C1655      H1660   1.084       .  S
C1656      C1661   1.474       .  S
C1656      C1657   1.408       .  A
C1657      C1658   1.407       .  A
C1657      N1662   1.437       .  S
C1658      H1663   1.084       .  S
N1659      H1679   1.046       .  S
N1659      H1680   1.046       .  S
C1661      C1664   1.402       .  A
C1661      C1668   1.408       .  A
N1662      H1677   1.046       .  S
N1662      H1678   1.046       .  S
C1664      C1665   1.407       .  A
C1664      H1669   1.084       .  S
C1665      C1666   1.411       .  A
C1665      N1670   1.437       .  S
C1666      C1667   1.402       .  A
C1667      C1668   1.399       .  A
C1667      H1671   1.084       .  S
C1668      N1672   1.438       .  S
N1670      H1673   1.046       .  S
N1670      H1674   1.046       .  S
N1672      H1675   1.046       .  S
N1672      H1676   1.046       .  S
