geometry optimzed in LAMMPS
_audit_creation_date              2020-12-01 
_audit_creation_method            'lammps2cif' 
_symmetry_space_group_name_H-M    'P1' 
_symmetry_Int_Tables_number       1 
_symmetry_cell_setting            triclinic 
loop_ 
_symmetry_equiv_pos_as_xyz 
  x,y,z 
_cell_length_a                    46.26065966 
_cell_length_b                    46.210961324027686 
_cell_length_c                    75.8436319860302 
_cell_angle_alpha                 89.99532096714614 
_cell_angle_beta                  89.99636265522848 
_cell_angle_gamma                 90.04288445107284 
loop_ 
_atom_site_label 
_atom_site_type_symbol 
_atom_site_fract_x 
_atom_site_fract_y 
_atom_site_fract_z 
_atom_site_charge 
O1          O  0.12250416  0.84846954  0.51967413    -0.69900
O2          O  0.05681545  0.84870243  0.54989389    -0.70200
O3          O  0.07028749  0.87436922  0.51931427    -0.70000
O4          O  0.10854034  0.82265543  0.55030378    -0.70000
O5          O  0.12656692  0.85904725  0.56480222    -0.70000
O6          O  0.08806944  0.91103896  0.53366210    -0.70000
O7          O  0.07481088  0.88522175  0.56428772    -0.70000
O8          O  0.14036829  0.88501438  0.53409670    -0.70100
V9          V  0.08995954  0.84928308  0.53504174     1.35200
V10         V  0.10719049  0.88439286  0.54888986     1.35200
C11         C  0.14263618  0.86661806  0.52186255     0.79300
C12         C  0.05475630  0.86700229  0.56220749     0.79300
C13         C  0.07208213  0.90137762  0.52148620     0.79200
C14         C  0.12350116  0.83202420  0.56298700     0.79200
O15         O  0.86053177  0.84079937  0.69793149    -0.69900
O16         O  0.85776904  0.77467550  0.66796928    -0.70200
O17         O  0.88548217  0.82559561  0.66725271    -0.70000
O18         O  0.83302778  0.78928942  0.69862305    -0.70000
O19         O  0.79677485  0.80798157  0.68436470    -0.70000
O20         O  0.84957787  0.84465940  0.65284661    -0.70000
O21         O  0.82174468  0.79374153  0.65367479    -0.70000
O22         O  0.82440426  0.85956180  0.68359718    -0.70100
V23         V  0.85848011  0.80803387  0.68270475     1.35200
V24         V  0.82380858  0.82620865  0.66894569     1.35200
C25         C  0.84299952  0.86146455  0.69572784     0.79300
C26         C  0.83928604  0.77312204  0.65573117     0.79300
C27         C  0.87648178  0.84072688  0.65455162     0.79200
C28         C  0.80609441  0.79179120  0.69654704     0.79200
O29         O  0.12690669  0.58567609  0.69708921    -0.69900
O30         O  0.12972264  0.65253265  0.66775533    -0.70200
O31         O  0.10071888  0.60232530  0.66705045    -0.70000
O32         O  0.15575371  0.63645255  0.69770440    -0.70000
O33         O  0.19070600  0.61725777  0.68251194    -0.70000
O34         O  0.13538190  0.58280086  0.65176712    -0.70000
O35         O  0.16446255  0.63302934  0.65252844    -0.70000
O36         O  0.16176527  0.56640176  0.68186754    -0.70100
V37         V  0.12896644  0.61878166  0.68214212     1.35200
V38         V  0.16241327  0.60014850  0.66750974     1.35200
C39         C  0.14380764  0.56465653  0.69436966     0.79300
C40         C  0.14759132  0.65403596  0.65518237     0.79300
C41         C  0.10869647  0.58736465  0.65401862     0.79200
C42         C  0.18248478  0.63337810  0.69500693     0.79200
O43         O  0.86176675  0.57946327  0.51857209    -0.69900
O44         O  0.92855454  0.58158287  0.54791884    -0.70200
O45         O  0.91441162  0.55432267  0.51795825    -0.70000
O46         O  0.87644899  0.60686600  0.54855052    -0.70000
O47         O  0.85946357  0.57087052  0.56386795    -0.70000
O48         O  0.89770052  0.51806849  0.53315765    -0.70000
O49         O  0.91154688  0.54548616  0.56313569    -0.70000
O50         O  0.84499784  0.54331536  0.53383250    -0.70100
V51         V  0.89489567  0.57982739  0.53350309     1.35200
V52         V  0.87867575  0.54511070  0.54815465     1.35200
C53         C  0.84195445  0.56117068  0.52136685     0.79300
C54         C  0.93124545  0.56390354  0.56052701     0.79300
C55         C  0.91314887  0.52740650  0.52063575     0.79200
C56         C  0.86206375  0.59783825  0.56156947     0.79200
O57         O  0.62698984  0.58515791  0.77019264    -0.69900
O58         O  0.62757898  0.65215915  0.79947140    -0.70200
O59         O  0.65433875  0.63681393  0.76962123    -0.70000
O60         O  0.60002923  0.60115024  0.80011220    -0.70000
O61         O  0.63507907  0.58265069  0.81553518    -0.70000
O62         O  0.68972463  0.61872933  0.78494024    -0.70000
O63         O  0.66271637  0.63367202  0.81482882    -0.70000
O64         O  0.66226870  0.56695742  0.78554078    -0.70100
V65         V  0.62794605  0.61837161  0.78510364     1.35200
V66         V  0.66178507  0.60075315  0.79986226     1.35200
C67         C  0.64442105  0.56460763  0.77301844     0.79300
C68         C  0.64525922  0.65416682  0.81211717     0.79300
C69         C  0.68112619  0.63462229  0.77242058     0.79200
C70         C  0.60828592  0.58648916  0.81320476     0.79200
O71         O  0.36158826  0.57898182  0.94854542    -0.69900
O72         O  0.42852779  0.57928422  0.91926131    -0.70200
O73         O  0.37683286  0.60530002  0.91829330    -0.70000
O74         O  0.41382870  0.55308340  0.94951554    -0.70000
O75         O  0.39664027  0.51664091  0.93469225    -0.70000
O76         O  0.35939488  0.56914008  0.90331799    -0.70000
O77         O  0.41108094  0.54300552  0.90440415    -0.70000
O78         O  0.34433840  0.54267510  0.93363743    -0.70100
V79         V  0.39479084  0.57842283  0.93365702     1.35200
V80         V  0.37812412  0.54354072  0.91935015     1.35200
C81         C  0.34151284  0.56090543  0.94592342     0.79300
C82         C  0.43099319  0.56127776  0.90680666     0.79300
C83         C  0.36241084  0.59612721  0.90533101     0.79200
C84         C  0.41210749  0.52611189  0.94716914     0.79200
O85         O  0.36345706  0.84040633  0.76959371    -0.69900
O86         O  0.36085540  0.77394381  0.79928768    -0.70200
O87         O  0.33764240  0.78801044  0.76810889    -0.70000
O88         O  0.38682065  0.82574706  0.80081278    -0.70000
O89         O  0.34939704  0.84350784  0.81437813    -0.70000
O90         O  0.29995083  0.80545989  0.78154498    -0.70000
O91         O  0.32333054  0.79170473  0.81274710    -0.70000
O92         O  0.32585237  0.85788802  0.78309175    -0.70100
V93         V  0.36144479  0.80744399  0.78467048     1.35200
V94         V  0.32534445  0.82438205  0.79762789     1.35200
C95         C  0.34519992  0.86052581  0.77145485     0.79300
C96         C  0.34164002  0.77166899  0.81105542     0.79300
C97         C  0.31053014  0.78962315  0.76958534     0.79200
C98         C  0.37649803  0.84050754  0.81330232     0.79200
O99         O  0.62219518  0.84953220  0.94739879    -0.69900
O100        O  0.55520492  0.85045913  0.91825267    -0.70200
O101        O  0.60656315  0.82374081  0.91706892    -0.70000
O102        O  0.57030750  0.87607496  0.94851683    -0.70000
O103        O  0.58786316  0.91245840  0.93379196    -0.70000
O104        O  0.62447286  0.85981176  0.90221706    -0.70000
O105        O  0.57307281  0.88663594  0.90347749    -0.70000
O106        O  0.63986271  0.88580563  0.93263339    -0.70100
V107        V  0.58899705  0.85067781  0.93255698     1.35200
V108        V  0.60606854  0.88549405  0.91835911     1.35200
C109        C  0.64244839  0.86742767  0.94485743     0.79300
C110        C  0.55284917  0.86873975  0.90594672     0.79300
C111        C  0.62113268  0.83284092  0.90414718     0.79200
C112        C  0.57221014  0.90303766  0.94619835     0.79200
O113        O  0.61929281  0.34808301  0.01924010    -0.69900
O114        O  0.55474461  0.34690881  0.05040198    -0.70200
O115        O  0.56719780  0.37429933  0.02022201    -0.70000
O116        O  0.60624119  0.32051455  0.04943438    -0.70000
O117        O  0.62514067  0.35587738  0.06445719    -0.70000
O118        O  0.58571913  0.40999793  0.03512166    -0.70000
O119        O  0.57364865  0.38238870  0.06532322    -0.70000
O120        O  0.63789662  0.38365768  0.03420520    -0.70100
V121        V  0.58729980  0.34817754  0.03506901     1.35200
V122        V  0.60531639  0.38232138  0.04943473     1.35200
C123        C  0.63967061  0.36591218  0.02159741     0.79300
C124        C  0.55341348  0.36441640  0.06317592     0.79300
C125        C  0.56917856  0.40114052  0.02299003     0.79200
C126        C  0.62176152  0.32900234  0.06209137     0.79200
O127        O  0.35947886  0.33875332  0.20093115    -0.69900
O128        O  0.35885928  0.27238453  0.17110845    -0.70200
O129        O  0.38683618  0.32321568  0.17109429    -0.70000
O130        O  0.33170929  0.28740535  0.20088999    -0.70000
O131        O  0.29678602  0.30614761  0.18545759    -0.70000
O132        O  0.35221906  0.34234962  0.15558476    -0.70000
O133        O  0.32417668  0.29150694  0.15565640    -0.70000
O134        O  0.32464526  0.35756006  0.18547086    -0.70100
V135        V  0.35852957  0.30588517  0.18574208     1.35200
V136        V  0.32511975  0.32411253  0.17088562     1.35200
C137        C  0.34222245  0.35946710  0.19815677     0.79300
C138        C  0.34136705  0.27077443  0.15834084     0.79300
C139        C  0.37891774  0.33834146  0.15812607     0.79200
C140        C  0.30501186  0.29001148  0.19793877     0.79200
O141        O  0.62402176  0.08402072  0.19664395    -0.69900
O142        O  0.62741692  0.14926378  0.16602060    -0.70200
O143        O  0.60023999  0.09804791  0.16544031    -0.70000
O144        O  0.65107682  0.13579147  0.19718070    -0.70000
O145        O  0.68802440  0.11697683  0.18366120    -0.70000
O146        O  0.63690393  0.07893252  0.15178752    -0.70000
O147        O  0.66419056  0.13018006  0.15246420    -0.70000
O148        O  0.66086905  0.06515620  0.18305991    -0.70100
V149        V  0.62642483  0.11634309  0.18109623     1.35200
V150        V  0.66180111  0.09809965  0.16805478     1.35200
C151        C  0.64177100  0.06342689  0.19491323     0.79300
C152        C  0.64636734  0.15068076  0.15404736     0.79300
C153        C  0.60990904  0.08259209  0.15306904     0.79200
C154        C  0.67810589  0.13342961  0.19552291     0.79200
O155        O  0.36272371  0.08054452  0.02003651    -0.69900
O156        O  0.42987982  0.07820660  0.04905668    -0.70200
O157        O  0.41451246  0.05374687  0.01850103    -0.70000
O158        O  0.37866930  0.10520469  0.05068161    -0.70000
O159        O  0.36058936  0.06871719  0.06506969    -0.70000
O160        O  0.39684290  0.01696749  0.03280318    -0.70000
O161        O  0.41181736  0.04165544  0.06339534    -0.70000
O162        O  0.34495964  0.04383866  0.03435327    -0.70100
V163        V  0.39600654  0.07869920  0.03480761     1.35200
V164        V  0.37879674  0.04349503  0.04858016     1.35200
C165        C  0.34239034  0.06265726  0.02238157     0.79300
C166        C  0.43216565  0.05946888  0.06111363     0.79300
C167        C  0.41256255  0.02672133  0.02052487     0.79200
C168        C  0.36411550  0.09573015  0.06351300     0.79200
O169        O  0.85965688  0.34056415  0.26831191    -0.69900
O170        O  0.85752939  0.27498698  0.29877809    -0.70200
O171        O  0.83291927  0.28855171  0.26787767    -0.70000
O172        O  0.88433700  0.32641091  0.29924027    -0.70000
O173        O  0.84787128  0.34514507  0.31328238    -0.70000
O174        O  0.79621015  0.30699717  0.28182027    -0.70000
O175        O  0.82098655  0.29370916  0.31274134    -0.70000
O176        O  0.82303038  0.35904193  0.28230306    -0.70100
V177        V  0.85787169  0.30805548  0.28377641     1.35200
V178        V  0.82271097  0.32593724  0.29721078     1.35200
C179        C  0.84186050  0.36106465  0.27030349     0.79300
C180        C  0.83895611  0.27337004  0.31096586     0.79300
C181        C  0.80591873  0.29068573  0.26982608     0.79200
C182        C  0.87485054  0.34168113  0.31175060     0.79200
O183        O  0.11904296  0.34652109  0.44679395    -0.69900
O184        O  0.05236568  0.34893536  0.41739354    -0.70200
O185        O  0.10326304  0.32135346  0.41629129    -0.70000
O186        O  0.06758200  0.37393817  0.44783495    -0.70000
O187        O  0.08590200  0.41017913  0.43332762    -0.70000
O188        O  0.12194605  0.35728663  0.40167048    -0.70000
O189        O  0.07101937  0.38496341  0.40284456    -0.70000
O190        O  0.13744976  0.38266457  0.43224831    -0.70100
V191        V  0.08600401  0.34840718  0.43183244     1.35200
V192        V  0.10381129  0.38308923  0.41784976     1.35200
C193        C  0.13961929  0.36410561  0.44439903     0.79300
C194        C  0.05047857  0.36737978  0.40514686     0.79300
C195        C  0.11812829  0.33035636  0.40346974     0.79200
C196        C  0.06997430  0.40089136  0.44564081     0.79200
O197        O  0.12386623  0.08232547  0.27012921    -0.69900
O198        O  0.12529570  0.14963897  0.29902567    -0.70200
O199        O  0.15044265  0.13419495  0.26865932    -0.70000
O200        O  0.09860474  0.09825358  0.30055083    -0.70000
O201        O  0.13487927  0.08053032  0.31525530    -0.70000
O202        O  0.18695624  0.11669446  0.28324183    -0.70000
O203        O  0.16166348  0.13191468  0.31363803    -0.70000
O204        O  0.16027502  0.06477175  0.28477393    -0.70100
V205        V  0.12527859  0.11568265  0.28483636     1.35200
V206        V  0.16025439  0.09873265  0.29889826     1.35200
C207        C  0.14175273  0.06209044  0.27265544     0.79300
C208        C  0.14369948  0.15207993  0.31124552     0.79300
C209        C  0.17740111  0.13218546  0.27081390     0.79200
C210        C  0.10792957  0.08387490  0.31349001     0.79200
O211        O  0.86279666  0.08043115  0.44922878    -0.69900
O212        O  0.93008166  0.08102996  0.42029750    -0.70200
O213        O  0.87853630  0.10742057  0.41926097    -0.70000
O214        O  0.91495851  0.05425820  0.45018155    -0.70000
O215        O  0.89783633  0.01826077  0.43493341    -0.70000
O216        O  0.86102861  0.07171322  0.40392319    -0.70000
O217        O  0.91256130  0.04524157  0.40502565    -0.70000
O218        O  0.84559053  0.04451387  0.43395257    -0.70100
V219        V  0.89616303  0.08006841  0.43448832     1.35200
V220        V  0.87948830  0.04561234  0.41980431     1.35200
C221        C  0.84271318  0.06245819  0.44638212     0.79300
C222        C  0.93263273  0.06317639  0.40777611     0.79300
C223        C  0.86420385  0.09864659  0.40615424     0.79200
C224        C  0.91338279  0.02736569  0.44747725     0.79200
O225        O  0.62319824  0.34103072  0.69974425    -0.69900
O226        O  0.62348834  0.27502633  0.66958299    -0.70200
O227        O  0.65069881  0.28949334  0.69948852    -0.70000
O228        O  0.59581080  0.32593689  0.66978265    -0.70000
O229        O  0.63058620  0.34506502  0.65438107    -0.70000
O230        O  0.68575863  0.30833836  0.68420033    -0.70000
O231        O  0.65836398  0.29419112  0.65428799    -0.70000
O232        O  0.65814215  0.35990303  0.68438521    -0.70100
V233        V  0.62399857  0.30832529  0.68439884     1.35200
V234        V  0.65755038  0.32660047  0.66966469     1.35200
C235        C  0.64054024  0.36174197  0.69706314     0.79300
C236        C  0.64097469  0.27354509  0.65680401     0.79300
C237        C  0.67743164  0.29201173  0.69657784     0.79200
C238        C  0.60385367  0.34103943  0.65682319     0.79200
O239        O  0.36117959  0.34596771  0.51924441    -0.69900
O240        O  0.42664292  0.34630468  0.54969933    -0.70200
O241        O  0.37530282  0.31956328  0.54968057    -0.70000
O242        O  0.41318417  0.37256624  0.51931196    -0.70000
O243        O  0.39490020  0.40865564  0.53394094    -0.70000
O244        O  0.35670255  0.35533475  0.56445537    -0.70000
O245        O  0.40803768  0.38219942  0.56436261    -0.70000
O246        O  0.34280578  0.38192280  0.53394731    -0.70100
V247        V  0.39363403  0.34683303  0.53471876     1.35200
V248        V  0.37587210  0.38135957  0.54883324     1.35200
C249        C  0.34077890  0.36375250  0.52157141     0.79300
C250        C  0.42828259  0.36425174  0.56223261     0.79300
C251        C  0.36027007  0.32840737  0.56246343     0.79200
C252        C  0.41120390  0.39948948  0.52177805     0.79200
O253        O  0.36277530  0.08617943  0.70046523    -0.69900
O254        O  0.36145551  0.15214699  0.67029367    -0.70200
O255        O  0.33660121  0.13845881  0.70108513    -0.70000
O256        O  0.38777991  0.10048763  0.66968974    -0.70000
O257        O  0.35124412  0.08215266  0.65549773    -0.70000
O258        O  0.29975863  0.12057485  0.68698120    -0.70000
O259        O  0.32484504  0.13381734  0.65617520    -0.70000
O260        O  0.32599536  0.06823414  0.68633938    -0.70100
V261        V  0.36141122  0.11889895  0.68515542     1.35200
V262        V  0.32614708  0.10147046  0.67157705     1.35200
C263        C  0.34478736  0.06585971  0.69832439     0.79300
C264        C  0.34292363  0.15403121  0.65809698     0.79300
C265        C  0.30959464  0.13669876  0.69904709     0.79200
C266        C  0.37825527  0.08535201  0.65712879     0.79200
O267        O  0.61950947  0.07810393  0.51984181    -0.69900
O268        O  0.55378992  0.07635454  0.55009572    -0.70200
O269        O  0.60434200  0.10467219  0.55004939    -0.70000
O270        O  0.56838767  0.05001505  0.51994554    -0.70000
O271        O  0.58757789  0.01474504  0.53488841    -0.70000
O272        O  0.62390674  0.06976317  0.56512442    -0.70000
O273        O  0.57335809  0.04133051  0.56507272    -0.70000
O274        O  0.63878644  0.04297112  0.53485264    -0.70100
V275        V  0.58696502  0.07658274  0.53523486     1.35200
V276        V  0.60562513  0.04286786  0.54964720     1.35200
C277        C  0.64034299  0.06088008  0.52231359     0.79300
C278        C  0.55255420  0.05854585  0.56272311     0.79300
C279        C  0.61962276  0.09653950  0.56289722     0.79200
C280        C  0.57120375  0.02321753  0.52257887     0.79200
O281        O  0.12684417  0.34330309  0.76996151    -0.69900
O282        O  0.12892529  0.27665324  0.79948571    -0.70200
O283        O  0.10049302  0.32716620  0.80004274    -0.70000
O284        O  0.15512564  0.29222548  0.76948074    -0.70000
O285        O  0.19030930  0.31119507  0.78459836    -0.70000
O286        O  0.13538093  0.34647511  0.81525764    -0.70000
O287        O  0.16389616  0.29594120  0.81463902    -0.70000
O288        O  0.16192874  0.36236785  0.78510918    -0.70100
V289        V  0.12854735  0.31029626  0.78499843     1.35200
V290        V  0.16221332  0.32872001  0.79956154     1.35200
C291        C  0.14394919  0.36419985  0.77262576     0.79300
C292        C  0.14678913  0.27507653  0.81205451     0.79300
C293        C  0.10863904  0.34218390  0.81301571     0.79200
C294        C  0.18189622  0.29504204  0.77215738     0.79200
O295        O  0.86153505  0.34663046  0.94746707    -0.69900
O296        O  0.92811719  0.34779696  0.91793056    -0.70200
O297        O  0.91348734  0.37305312  0.94843749    -0.70000
O298        O  0.87671774  0.32118174  0.91690790    -0.70000
O299        O  0.85877706  0.35748174  0.90230299    -0.70000
O300        O  0.89578288  0.40964958  0.93400062    -0.70000
O301        O  0.91016605  0.38422976  0.90345639    -0.70000
O302        O  0.84378635  0.38308134  0.93292637    -0.70100
V303        V  0.89453787  0.34789491  0.93244376     1.35200
V304        V  0.87738128  0.38292049  0.91850075     1.35200
C305        C  0.84132630  0.36462070  0.94511050     0.79300
C306        C  0.93030317  0.36618007  0.90566175     0.79300
C307        C  0.91150338  0.40004709  0.94631201     0.79200
C308        C  0.86215989  0.33048994  0.90404428     0.79200
O309        O  0.86093275  0.08457437  0.76865291    -0.69900
O310        O  0.86029581  0.15207144  0.79747116    -0.70200
O311        O  0.88614783  0.10026199  0.79914078    -0.70000
O312        O  0.83520890  0.13693074  0.76700567    -0.70000
O313        O  0.79827231  0.12002081  0.78146718    -0.70000
O314        O  0.84946735  0.08311310  0.81374242    -0.70000
O315        O  0.82349760  0.13490510  0.81195291    -0.70000
O316        O  0.82409996  0.06762081  0.78318318    -0.70100
V317        V  0.85990761  0.11805294  0.78330933     1.35200
V318        V  0.82452708  0.10166489  0.79725783     1.35200
C319        C  0.84274735  0.06456037  0.77116685     0.79300
C320        C  0.84178761  0.15481545  0.80961269     0.79300
C321        C  0.87649889  0.08599405  0.81204564     0.79200
C322        C  0.80819045  0.13537360  0.76906310     0.79200
O323        O  0.12060342  0.08108107  0.94750811    -0.69900
O324        O  0.05491296  0.07928571  0.91727348    -0.70200
O325        O  0.06874783  0.05430448  0.94798606    -0.70000
O326        O  0.10623922  0.10620870  0.91673246    -0.70000
O327        O  0.12485499  0.06992913  0.90243274    -0.70000
O328        O  0.08709433  0.01773837  0.93383091    -0.70000
O329        O  0.07350076  0.04288188  0.90307681    -0.70000
O330        O  0.13901284  0.04463232  0.93328021    -0.70100
V331        V  0.08806019  0.07949270  0.93213330     1.35200
V332        V  0.10584147  0.04448545  0.91847409     1.35200
C333        C  0.14101781  0.06323858  0.94541665     0.79300
C334        C  0.05314544  0.06075806  0.90506718     0.79300
C335        C  0.07092687  0.02730019  0.94594202     0.79200
C336        C  0.12138937  0.09692273  0.90411531     0.79200
O337        O  0.35565150  0.58377814  0.26940604    -0.69900
O338        O  0.35666538  0.65183627  0.29772608    -0.70200
O339        O  0.38322398  0.60033248  0.29892678    -0.70000
O340        O  0.32922502  0.63580200  0.26823003    -0.70000
O341        O  0.29371736  0.61890337  0.28397398    -0.70000
O342        O  0.34800229  0.58298746  0.31473199    -0.70000
O343        O  0.32140754  0.63453025  0.31351019    -0.70000
O344        O  0.32021259  0.56673619  0.28513605    -0.70100
V345        V  0.35547136  0.61752774  0.28383867     1.35200
V346        V  0.32149343  0.60103734  0.29898827     1.35200
C347        C  0.33793443  0.56361078  0.27260999     0.79300
C348        C  0.33920721  0.65462430  0.31042972     0.79300
C349        C  0.37481884  0.58613077  0.31217353     0.79200
C350        C  0.30244365  0.63410814  0.27117789     0.79200
O351        O  0.61905312  0.57787185  0.44802052    -0.69900
O352        O  0.55302921  0.57718062  0.41803184    -0.70200
O353        O  0.56711085  0.55130248  0.44844852    -0.70000
O354        O  0.60435861  0.60395263  0.41757397    -0.70000
O355        O  0.62266704  0.56805527  0.40278099    -0.70000
O356        O  0.58516181  0.51504194  0.43386957    -0.70000
O357        O  0.57134668  0.54109395  0.40340686    -0.70000
O358        O  0.63716955  0.54179153  0.43331092    -0.70100
V359        V  0.58631937  0.57684551  0.43277370     1.35200
V360        V  0.60382356  0.54216969  0.41867553     1.35200
C361        C  0.63938016  0.56002302  0.44563760     0.79300
C362        C  0.55114639  0.55906456  0.40560313     0.79300
C363        C  0.56917210  0.52434891  0.44615197     0.79200
C364        C  0.61920053  0.59501438  0.40473242     0.79200
O365        O  0.36295020  0.84761330  0.44616416    -0.69900
O366        O  0.43025136  0.85025856  0.41733187    -0.70200
O367        O  0.41482162  0.87410352  0.44802269    -0.70000
O368        O  0.37894722  0.82348248  0.41538216    -0.70000
O369        O  0.36116403  0.86029228  0.40118904    -0.70000
O370        O  0.39745903  0.91126244  0.43397211    -0.70000
O371        O  0.41249441  0.88718166  0.40322613    -0.70000
O372        O  0.34548357  0.88466413  0.43206296    -0.70100
V373        V  0.39630607  0.84959199  0.43148155     1.35200
V374        V  0.37938351  0.88513937  0.41792619     1.35200
C375        C  0.34278945  0.86569437  0.44393064     0.79300
C376        C  0.43273419  0.86927460  0.40545504     0.79300
C377        C  0.41299735  0.90117160  0.44623291     0.79200
C378        C  0.36454140  0.83323269  0.40257716     0.79200
O379        O  0.62268194  0.84258028  0.27060071    -0.69900
O380        O  0.62364056  0.77666519  0.30075550    -0.70200
O381        O  0.59908561  0.82917449  0.30190143    -0.70000
O382        O  0.64715377  0.78960394  0.26944625    -0.70000
O383        O  0.68531991  0.80640538  0.28271601    -0.70000
O384        O  0.63700772  0.84626571  0.31530076    -0.70000
O385        O  0.66165376  0.79371570  0.31406227    -0.70000
O386        O  0.66075560  0.85945554  0.28391997    -0.70100
V387        V  0.62390724  0.80989408  0.28589826     1.35200
V388        V  0.66047266  0.82619577  0.29869682     1.35200
C389        C  0.64139375  0.86232997  0.27231013     0.79300
C390        C  0.64280565  0.77409975  0.31252841     0.79300
C391        C  0.60984273  0.84402014  0.31421855     0.79200
C392        C  0.67430460  0.79069581  0.27083773     0.79200
O393        O  0.12595760  0.84116958  0.19696373    -0.69900
O394        O  0.12757614  0.77639968  0.16603054    -0.70200
O395        O  0.15259436  0.78933617  0.19686295    -0.70000
O396        O  0.10079743  0.82774085  0.16610258    -0.70000
O397        O  0.13703049  0.84680212  0.15196711    -0.70000
O398        O  0.18915627  0.80808764  0.18289239    -0.70000
O399        O  0.16394765  0.79540591  0.15199969    -0.70000
O400        O  0.16237853  0.86002456  0.18291406    -0.70100
V401        V  0.12746719  0.80909361  0.18125083     1.35200
V402        V  0.16244852  0.82729038  0.16775804     1.35200
C403        C  0.14378500  0.86166177  0.19506030     0.79300
C404        C  0.14601136  0.77502363  0.15377047     0.79300
C405        C  0.17956092  0.79162642  0.19485780     0.79200
C406        C  0.11007104  0.84328511  0.15365781     0.79200
O407        O  0.86409807  0.84713900  0.01931981    -0.69900
O408        O  0.93006060  0.84734827  0.04937388    -0.70200
O409        O  0.87844330  0.82085786  0.04973556    -0.70000
O410        O  0.91624141  0.87340167  0.01901377    -0.70000
O411        O  0.89843020  0.90969193  0.03367776    -0.70000
O412        O  0.86020605  0.85684729  0.06448005    -0.70000
O413        O  0.91183316  0.88341201  0.06406145    -0.70000
O414        O  0.84620873  0.88335943  0.03400614    -0.70100
V415        V  0.89678365  0.84790403  0.03461182     1.35200
V416        V  0.87943506  0.88263858  0.04872981     1.35200
C417        C  0.84389893  0.86514191  0.02168007     0.79300
C418        C  0.93206459  0.86550791  0.06177329     0.79300
C419        C  0.86337389  0.82987338  0.06246217     0.79200
C420        C  0.91444002  0.90035154  0.02142278     0.79200
O421        O  0.11857164  0.57755925  0.01945756    -0.69900
O422        O  0.05273569  0.57742057  0.04962504    -0.70200
O423        O  0.10397304  0.60445798  0.04958781    -0.70000
O424        O  0.06679223  0.55064650  0.01951131    -0.70000
O425        O  0.08511154  0.51497658  0.03451257    -0.70000
O426        O  0.12266010  0.56910751  0.06470406    -0.70000
O427        O  0.07137916  0.54197427  0.06466901    -0.70000
O428        O  0.13699164  0.54200592  0.03449992    -0.70100
V429        V  0.08594488  0.57679700  0.03479838     1.35200
V430        V  0.10375507  0.54267546  0.04925827     1.35200
C431        C  0.13905569  0.55995135  0.02199929     0.79300
C432        C  0.05101892  0.55972195  0.06228786     0.79300
C433        C  0.11911809  0.59596114  0.06240228     0.79200
C434        C  0.06899852  0.52380004  0.02217356     0.79200
O435        O  0.85421356  0.58561480  0.19755120    -0.69900
O436        O  0.85084993  0.65204185  0.16785092    -0.70200
O437        O  0.82499706  0.63619201  0.19792881    -0.70000
O438        O  0.88017698  0.60205929  0.16743651    -0.70000
O439        O  0.84562780  0.58196707  0.15230976    -0.70000
O440        O  0.79010670  0.61654930  0.18287520    -0.70000
O441        O  0.81623936  0.63200293  0.15275396    -0.70000
O442        O  0.81941138  0.56585257  0.18249569    -0.70100
V443        V  0.85185102  0.61851718  0.18244271     1.35200
V444        V  0.81849353  0.59939246  0.16795176     1.35200
C445        C  0.83755188  0.56434806  0.19491078     0.79300
C446        C  0.83303693  0.65315496  0.15523320     0.79300
C447        C  0.79827906  0.63290518  0.19527682     0.79200
C448        C  0.87229421  0.58673036  0.15454194     0.79200
C449        C  0.93584785  0.56575859  0.11976837     0.18900
C450        C  0.96390644  0.56079416  0.12604695    -0.10300
C451        C  0.98702996  0.55857992  0.11422081    -0.11100
C452        C  0.98222761  0.56136819  0.09605036     0.20400
C453        C  0.95412154  0.56599307  0.08976310    -0.13100
C454        C  0.93100014  0.56820894  0.10158875    -0.11400
C455        C  0.00620016  0.56026691  0.08391990     0.01400
C456        C  0.02647674  0.55989289  0.07390377    -0.31400
C457        C  0.91239717  0.57009873  0.13199668     0.02800
C458        C  0.89344248  0.57610226  0.14229422    -0.33100
H459        H  0.96796732  0.55909227  0.14007998     0.13800
H460        H  0.00866518  0.55507907  0.11924753     0.13600
H461        H  0.95014402  0.56826141  0.07575213     0.13500
H462        H  0.90945292  0.57227836  0.09658368     0.12500
C463        C  0.83300813  0.72156090  0.12112765     0.18900
C464        C  0.83873729  0.71592030  0.10331296    -0.10300
C465        C  0.84150374  0.73878699  0.09133843    -0.11100
C466        C  0.83852483  0.76745594  0.09708814     0.20400
C467        C  0.83222809  0.77309501  0.11483859    -0.13100
C468        C  0.82945097  0.75019955  0.12682717    -0.11400
C469        C  0.84397305  0.79094201  0.08501015     0.01400
C470        C  0.85120665  0.80956314  0.07474901    -0.31400
C471        C  0.83197266  0.69801718  0.13359752     0.02800
C472        C  0.83214186  0.67783508  0.14370859    -0.33100
H473        H  0.84160034  0.69389056  0.09874763     0.13800
H474        H  0.84657017  0.73414396  0.07768133     0.13600
H475        H  0.83006931  0.79516324  0.11947233     0.13500
H476        H  0.82507721  0.75484509  0.14057032     0.12500
C477        C  0.00149303  0.86743141  0.09492701     0.18900
C478        C  0.99672734  0.87121993  0.11302674    -0.10300
C479        C  0.01997423  0.87039599  0.12480853    -0.11100
C480        C  0.04810501  0.86584828  0.11854262     0.20400
C481        C  0.05293678  0.86262719  0.10040892    -0.13100
C482        C  0.02968424  0.86345420  0.08862375    -0.11400
C483        C  0.07152248  0.86191761  0.13080789     0.01400
C484        C  0.09006665  0.85538334  0.14123971    -0.31400
C485        C  0.97738619  0.86676454  0.08292543     0.02800
C486        C  0.95689130  0.86594719  0.07311217    -0.33100
H487        H  0.97501789  0.87427354  0.11805083     0.13800
H488        H  0.01594231  0.87262522  0.13881595     0.13600
H489        H  0.07455272  0.85881272  0.09543244     0.13500
H490        H  0.03361657  0.86046758  0.07465987     0.12500
C491        C  0.14521234  0.70584308  0.12040313     0.18900
C492        C  0.12767892  0.68213974  0.12466803    -0.10300
C493        C  0.12559257  0.65868163  0.11311119    -0.11100
C494        C  0.14105992  0.65876904  0.09723066     0.20400
C495        C  0.15883856  0.68234786  0.09301847    -0.13100
C496        C  0.16093610  0.70584580  0.10459972    -0.11400
C497        C  0.13708604  0.63548598  0.08486724     0.01400
C498        C  0.13074961  0.61669066  0.07454736    -0.31400
C499        C  0.14640710  0.73035610  0.13208255     0.02800
C500        C  0.14649586  0.75075622  0.14198750    -0.33100
H501        H  0.11535466  0.68195361  0.13681847     0.13800
H502        H  0.11157565  0.64069307  0.11642361     0.13600
H503        H  0.17068888  0.68275884  0.08069739     0.13500
H504        H  0.17449047  0.72411305  0.10114694     0.12500
C505        C  0.74807039  0.68799768  0.22351948     0.18900
C506        C  0.72098503  0.69777876  0.21778325    -0.10300
C507        C  0.70706531  0.72031883  0.22672654    -0.11100
C508        C  0.72021899  0.73326339  0.24139909     0.20400
C509        C  0.74728722  0.72347004  0.24712597    -0.13100
C510        C  0.76118951  0.70094518  0.23819513    -0.11400
C511        C  0.70546775  0.75576446  0.25098477     0.01400
C512        C  0.69207555  0.77306055  0.25965241    -0.31400
C513        C  0.76315182  0.66571009  0.21392797     0.02800
C514        C  0.77788342  0.64901840  0.20562947    -0.33100
H515        H  0.71071735  0.68809423  0.20637691     0.13800
H516        H  0.68606395  0.72759666  0.22223756     0.13600
H517        H  0.75760007  0.73318823  0.25850751     0.13500
H518        H  0.78221658  0.69372319  0.24267461     0.12500
C519        C  0.55120560  0.86838351  0.35085051     0.18900
C520        C  0.52835735  0.88743083  0.34735134    -0.10300
C521        C  0.50490084  0.88906514  0.35896449    -0.11100
C522        C  0.50421931  0.87160146  0.37407509     0.20400
C523        C  0.52738262  0.85308403  0.37776297    -0.13100
C524        C  0.55080463  0.85146420  0.36617586    -0.11400
C525        C  0.47924475  0.87158254  0.38537019     0.01400
C526        C  0.45811425  0.87059616  0.39464250    -0.31400
C527        C  0.57371209  0.86402876  0.33804358     0.02800
C528        C  0.59124850  0.85684355  0.32714794    -0.33100
H529        H  0.52831561  0.90040510  0.33544777     0.13800
H530        H  0.48704964  0.90339893  0.35596676     0.13600
H531        H  0.52702781  0.83942136  0.38937623     0.13500
H532        H  0.56821095  0.83645615  0.36891560     0.12500
C533        C  0.64317095  0.70485604  0.34609454     0.18900
C534        C  0.64351194  0.67636845  0.33973213    -0.10300
C535        C  0.64210178  0.65304313  0.35150122    -0.11100
C536        C  0.64041139  0.65807210  0.36970015     0.20400
C537        C  0.64048901  0.68655593  0.37606196    -0.13100
C538        C  0.64188867  0.70986060  0.36430322    -0.11400
C539        C  0.63654742  0.63426016  0.38178442     0.01400
C540        C  0.63050910  0.61540962  0.39218477    -0.31400
C541        C  0.64338931  0.72894142  0.33398090     0.02800
C542        C  0.64313970  0.74938616  0.32405712    -0.33100
H543        H  0.64444770  0.67220612  0.32569052     0.13800
H544        H  0.64181311  0.63114137  0.34640068     0.13600
H545        H  0.63894240  0.69075127  0.39008153     0.13500
H546        H  0.64155504  0.73176978  0.36939471     0.12500
C547        C  0.22708613  0.73519838  0.22394616     0.18900
C548        C  0.21730937  0.72756890  0.24081373    -0.10300
C549        C  0.23066715  0.70504037  0.25006531    -0.11100
C550        C  0.25378681  0.68994856  0.24246032     0.20400
C551        C  0.26356758  0.69759873  0.22560099    -0.13100
C552        C  0.25021707  0.72012142  0.21635377    -0.11400
C553        C  0.26843100  0.66761293  0.25224098     0.01400
C554        C  0.28266630  0.65070609  0.26068640    -0.31400
C555        C  0.21252003  0.75753829  0.21412783     0.02800
C556        C  0.19865008  0.77455154  0.20553759    -0.33100
H557        H  0.19932193  0.73894500  0.24676981     0.13800
H558        H  0.22305948  0.69947460  0.26314698     0.13600
H559        H  0.28156558  0.68623983  0.21964498     0.13500
H560        H  0.25784396  0.72569570  0.20327759     0.12500
C561        C  0.43710507  0.56430792  0.34747155     0.18900
C562        C  0.46458678  0.55572380  0.34172905    -0.10300
C563        C  0.48739150  0.55359100  0.35378012    -0.11100
C564        C  0.48281170  0.56008788  0.37161638     0.20400
C565        C  0.45524924  0.56830433  0.37738476    -0.13100
C566        C  0.43245839  0.57043286  0.36534156    -0.11400
C567        C  0.50653496  0.55918881  0.38388989     0.01400
C568        C  0.52665156  0.55903442  0.39399952    -0.31400
C569        C  0.41418624  0.56872720  0.33492092     0.02800
C570        C  0.39559037  0.57502672  0.32446908    -0.33100
H571        H  0.46849214  0.55117704  0.32791469     0.13800
H572        H  0.50863570  0.54730265  0.34916398     0.13600
H573        H  0.45148295  0.57346586  0.39113206     0.13500
H574        H  0.41137280  0.57733184  0.36990120     0.12500
C575        C  0.34344850  0.77200519  0.36637161     0.18900
C576        C  0.34940899  0.77618651  0.34842702    -0.10300
C577        C  0.34779930  0.75288327  0.33666452    -0.11100
C578        C  0.34028274  0.72526607  0.34279397     0.20400
C579        C  0.33393524  0.72118361  0.36069212    -0.13100
C580        C  0.33553942  0.74447000  0.37244512    -0.11400
C581        C  0.33979393  0.70095922  0.33087558     0.01400
C582        C  0.33961678  0.68008825  0.32130382    -0.31400
C583        C  0.34748389  0.79534434  0.37874867     0.02800
C584        C  0.35350376  0.81363923  0.38950013    -0.33100
H585        H  0.35580318  0.79730585  0.34359543     0.13800
H586        H  0.35281421  0.75630420  0.32286774     0.13600
H587        H  0.32816187  0.69993122  0.36560022     0.13500
H588        H  0.33113912  0.74089475  0.38630654     0.12500
C589        C  0.01523437  0.97809926  0.97475846     0.18900
C590        C  0.01082119  0.98357476  0.99273542    -0.10300
C591        C  0.98871643  0.96927842  0.00186713    -0.11100
C592        C  0.97081947  0.94950117  0.99306203     0.20400
C593        C  0.97526843  0.94399259  0.97509322    -0.13100
C594        C  0.99737039  0.95828525  0.96596340    -0.11400
C595        C  0.94867129  0.93405857  0.00260165     0.01400
C596        C  0.93165024  0.91970362  0.01092942    -0.31400
C597        C  0.03721746  0.99368281  0.96516609     0.02800
C598        C  0.05400046  0.00807936  0.95668935    -0.33100
H599        H  0.02436617  0.99896353  0.99966175     0.13800
H600        H  0.98562373  0.97359108  0.01578082     0.13600
H601        H  0.96170974  0.92862306  0.96816100     0.13500
H602        H  0.00044545  0.95398767  0.95204637     0.12500
C603        C  0.98358639  0.06008843  0.87194169     0.18900
C604        C  0.95759053  0.07302128  0.87718984    -0.10300
C605        C  0.93442218  0.07485416  0.86539034    -0.11100
C606        C  0.93710545  0.06371602  0.84828205     0.20400
C607        C  0.96292982  0.05032225  0.84312636    -0.13100
C608        C  0.98611172  0.04848653  0.85493338    -0.11400
C609        C  0.91423884  0.06807810  0.83566819     0.01400
C610        C  0.89615012  0.07452630  0.82491087    -0.31400
C611        C  0.00793347  0.05967562  0.88378542     0.02800
C612        C  0.02847264  0.06004937  0.89358644    -0.33100
H613        H  0.95541030  0.08213871  0.89028806     0.13800
H614        H  0.91466899  0.08548549  0.86947484     0.13600
H615        H  0.96535216  0.04186090  0.82988127     0.13500
H616        H  0.00612552  0.03850837  0.85071150     0.12500
C617        C  0.01271013  0.47482122  0.99392193     0.18900
C618        C  0.01009890  0.47871072  0.97567046    -0.10300
C619        C  0.98759831  0.46528671  0.96644317    -0.11100
C620        C  0.96751983  0.44799393  0.97542741     0.20400
C621        C  0.97012106  0.44410287  0.99368256    -0.13100
C622        C  0.99262770  0.45753497  0.00291356    -0.11400
C623        C  0.94515314  0.43318035  0.96576938     0.01400
C624        C  0.92824523  0.41916502  0.95718214    -0.31400
C625        C  0.03508974  0.48969849  0.00353085     0.02800
C626        C  0.05210294  0.50402088  0.01184731    -0.33100
H627        H  0.02536243  0.49219557  0.96859917     0.13800
H628        H  0.98592345  0.46829086  0.95231197     0.13600
H629        H  0.95484812  0.43062445  0.00075040     0.13500
H630        H  0.99430193  0.45454668  0.01704578     0.12500
C631        C  0.84264794  0.27000650  0.86715581     0.18900
C632        C  0.82809976  0.24429163  0.87132005    -0.10300
C633        C  0.82723406  0.22155925  0.85913652    -0.11100
C634        C  0.84096533  0.22440727  0.84274759     0.20400
C635        C  0.85518195  0.25026290  0.83849823    -0.13100
C636        C  0.85604030  0.27298917  0.85067506    -0.11400
C637        C  0.84118098  0.20051241  0.83054345     0.01400
C638        C  0.84158359  0.17997926  0.82072065    -0.31400
C639        C  0.84569059  0.29250057  0.88017566     0.02800
C640        C  0.85122635  0.31055836  0.89115387    -0.33100
H641        H  0.81790118  0.24162465  0.88407902     0.13800
H642        H  0.81625010  0.20163652  0.86258935     0.13600
H643        H  0.86595047  0.25268841  0.82589642     0.13500
H644        H  0.86758742  0.29266062  0.84737192     0.12500
C645        C  0.99981015  0.36548926  0.87247966     0.18900
C646        C  0.02301583  0.34687173  0.87590805    -0.10300
C647        C  0.04608656  0.34508000  0.86404305    -0.11100
C648        C  0.04612526  0.36191999  0.84867246     0.20400
C649        C  0.02305808  0.38078190  0.84531227    -0.13100
C650        C  0.99995470  0.38258217  0.85719889    -0.11400
C651        C  0.06906375  0.35847312  0.83598418     0.01400
C652        C  0.08771602  0.35281722  0.82540986    -0.31400
C653        C  0.97557463  0.36639384  0.88440770     0.02800
C654        C  0.95510177  0.36643786  0.89426816    -0.33100
H655        H  0.02310751  0.33348037  0.88764259     0.13800
H656        H  0.06367383  0.33026212  0.86671916     0.13600
H657        H  0.02273350  0.39375374  0.83340696     0.13500
H658        H  0.98209092  0.39698881  0.85437919     0.12500
C659        C  0.14454440  0.15876037  0.86878264     0.18900
C660        C  0.14911943  0.18690776  0.87507710    -0.10300
C661        C  0.15087599  0.21012211  0.86328005    -0.11100
C662        C  0.14801895  0.20533591  0.84511722     0.20400
C663        C  0.14400534  0.17711979  0.83878919    -0.13100
C664        C  0.14224173  0.15389094  0.85059425    -0.11400
C665        C  0.14813921  0.22948615  0.83308754     0.01400
C666        C  0.14759355  0.25008664  0.82331124    -0.31400
C667        C  0.13991577  0.13537854  0.88104342     0.02800
C668        C  0.13321164  0.11693177  0.89154150    -0.33100
H669        H  0.15068172  0.19098715  0.88911321     0.13800
H670        H  0.15391706  0.23183903  0.86833547     0.13600
H671        H  0.14170347  0.17315533  0.82478003     0.13500
H672        H  0.13845318  0.13227043  0.84557564     0.12500
C673        C  0.46970867  0.94759953  0.47579778     0.18900
C674        C  0.47943673  0.93599313  0.49181351    -0.10300
C675        C  0.50216061  0.94926067  0.50095165    -0.11100
C676        C  0.51536352  0.97413027  0.49407833     0.20400
C677        C  0.50567871  0.98567698  0.47804242    -0.13100
C678        C  0.48296414  0.97242162  0.46891215    -0.11400
C679        C  0.53777003  0.98874028  0.50384759     0.01400
C680        C  0.55466050  0.00310721  0.51224730    -0.31400
C681        C  0.44705588  0.93331153  0.46606275     0.02800
C682        C  0.42987768  0.91980337  0.45735724    -0.33100
H683        H  0.46950817  0.91668522  0.49720530     0.13800
H684        H  0.50931091  0.94024251  0.51339529     0.13600
H685        H  0.51557107  0.00500818  0.47265566     0.13500
H686        H  0.47579135  0.98147709  0.45648290     0.12500
C687        C  0.23291116  0.23963804  0.74451673     0.18900
C688        C  0.25155198  0.22124882  0.75383232    -0.10300
C689        C  0.26580039  0.19869254  0.74509830    -0.11100
C690        C  0.26140246  0.19431700  0.72700824     0.20400
C691        C  0.24285013  0.21277765  0.71768355    -0.13100
C692        C  0.22860690  0.23532918  0.72641512    -0.11400
C693        C  0.27666984  0.17160989  0.71787007     0.01400
C694        C  0.29072050  0.15419859  0.70966308    -0.31400
C695        C  0.21706294  0.26188747  0.75369924    -0.03600
C696        C  0.20210435  0.27863908  0.76181449    -0.33100
H697        H  0.25490885  0.22422251  0.76785455     0.13800
H698        H  0.28022043  0.18469677  0.75243459     0.13600
H699        H  0.23940707  0.20974227  0.70367397     0.13500
H700        H  0.21410711  0.24925658  0.71908870     0.12500
C701        C  0.48503535  0.05801220  0.59734027     0.18900
C702        C  0.49088394  0.06494220  0.61496640    -0.10300
C703        C  0.46830623  0.06683503  0.62716890    -0.11100
C704        C  0.43974692  0.06176841  0.62183105     0.20400
C705        C  0.43393136  0.05429771  0.60427523    -0.13100
C706        C  0.45654280  0.05239064  0.59205682    -0.11400
C707        C  0.41643245  0.06638350  0.63409913     0.01400
C708        C  0.39804774  0.07323874  0.64457098    -0.31400
C709        C  0.50819381  0.05761645  0.58464530     0.02800
C710        C  0.52810433  0.05798281  0.57437577    -0.33100
H711        H  0.51281058  0.06936859  0.61920045     0.13800
H712        H  0.47304715  0.07284308  0.64067574     0.13600
H713        H  0.41192386  0.05054371  0.59996724     0.13500
H714        H  0.45176288  0.04704074  0.57845580     0.12500
C715        C  0.51318926  0.47614443  0.47536382     0.18900
C716        C  0.51046263  0.44598977  0.47437252    -0.10300
C717        C  0.48821825  0.43189395  0.48349684    -0.11100
C718        C  0.46850106  0.44785120  0.49363145     0.20400
C719        C  0.47129740  0.47799614  0.49468455    -0.13100
C720        C  0.49354606  0.49209391  0.48555993    -0.11400
C721        C  0.44591226  0.43308026  0.50320246     0.01400
C722        C  0.42858980  0.41896529  0.51146244    -0.31400
C723        C  0.53540932  0.49093734  0.46548793     0.02800
C724        C  0.55229686  0.50498560  0.45685784    -0.33100
H725        H  0.52541037  0.43341334  0.46649120     0.13800
H726        H  0.48637876  0.40856360  0.48264133     0.13600
H727        H  0.45630259  0.49057669  0.50253033     0.13500
H728        H  0.49534376  0.51543105  0.48637919     0.12500
C729        C  0.34074600  0.22225258  0.62388025     0.18900
C730        C  0.32687639  0.21882498  0.60757091    -0.10300
C731        C  0.32716087  0.24134272  0.59521131    -0.11100
C732        C  0.34125879  0.26742183  0.59912563     0.20400
C733        C  0.35477811  0.27095746  0.61552453    -0.13100
C734        C  0.35450465  0.24846071  0.62786710    -0.11400
C735        C  0.34376643  0.28979443  0.58596557     0.01400
C736        C  0.34915233  0.30803808  0.57506041    -0.31400
C737        C  0.34151648  0.19867750  0.63632318     0.02800
C738        C  0.34237430  0.17859546  0.64648724    -0.33100
H739        H  0.31621935  0.19863088  0.60431953     0.13800
H740        H  0.31686408  0.23824085  0.58252295     0.13600
H741        H  0.36598161  0.29091175  0.61864215     0.13500
H742        H  0.36535720  0.25135236  0.64040079     0.12500
C743        C  0.75923883  0.19119409  0.74029961     0.18900
C744        C  0.77416138  0.21373388  0.73188676    -0.10300
C745        C  0.75888793  0.23588111  0.72341769    -0.11100
C746        C  0.72860406  0.23564445  0.72336181     0.20400
C747        C  0.71369613  0.21304494  0.73171574    -0.13100
C748        C  0.72896204  0.19090845  0.74018028    -0.11400
C749        C  0.71266954  0.25809105  0.71443749     0.01400
C750        C  0.69767160  0.27513045  0.70658766    -0.31400
C751        C  0.77504183  0.16906765  0.74959994     0.02800
C752        C  0.78934973  0.15222628  0.75806462    -0.33100
H753        H  0.79757212  0.21426529  0.73196336     0.13800
H754        H  0.77066194  0.25315246  0.71694318     0.13600
H755        H  0.69028364  0.21255578  0.73169325     0.13500
H756        H  0.71717647  0.17369328  0.74670333     0.12500
C757        C  0.54166337  0.36038542  0.62099207     0.18900
C758        C  0.54266761  0.34387165  0.60550580    -0.10300
C759        C  0.52003696  0.34531846  0.59331989    -0.11100
C760        C  0.49623791  0.36326476  0.59654880     0.20400
C761        C  0.49529943  0.37997342  0.61197255    -0.13100
C762        C  0.51796135  0.37851706  0.62418094    -0.11400
C763        C  0.47257771  0.36401044  0.58421065     0.01400
C764        C  0.45258005  0.36415693  0.57400451    -0.31400
C765        C  0.56426219  0.35736310  0.63392718     0.02800
C766        C  0.58283558  0.35186442  0.64457216    -0.33100
H767        H  0.56076162  0.32960109  0.60296643     0.13800
H768        H  0.52096054  0.33223304  0.58147640     0.13600
H769        H  0.47695895  0.39386040  0.61463348     0.13500
H770        H  0.51683350  0.39121020  0.63617388     0.12500
C771        C  0.63961408  0.15975623  0.59807975     0.18900
C772        C  0.63960509  0.18851060  0.59219172    -0.10300
C773        C  0.64059232  0.21127076  0.60435192    -0.11100
C774        C  0.64153239  0.20541844  0.62247839     0.20400
C775        C  0.64195922  0.17666739  0.62835953    -0.13100
C776        C  0.64096821  0.15389923  0.61619487    -0.11400
C777        C  0.64141321  0.22890363  0.63499959     0.01400
C778        C  0.64106994  0.24896486  0.64519404    -0.31400
C779        C  0.63617090  0.13642782  0.58562860     0.02800
C780        C  0.63048472  0.11754539  0.57519130    -0.33100
H781        H  0.63831677  0.19333146  0.57823178     0.13800
H782        H  0.64021864  0.23339924  0.59963846     0.13600
H783        H  0.64265209  0.17186207  0.64233526     0.13500
H784        H  0.64074196  0.13177737  0.62091903     0.12500
C785        C  0.71447480  0.06252025  0.49292506     0.18900
C786        C  0.72039655  0.04090667  0.48047047    -0.10300
C787        C  0.74671829  0.04092082  0.47133213    -0.11100
C788        C  0.76732646  0.06254412  0.47460212     0.20400
C789        C  0.76137381  0.08418703  0.48702657    -0.13100
C790        C  0.73505748  0.08417347  0.49616259    -0.11400
C791        C  0.79442342  0.06260628  0.46513193     0.01400
C792        C  0.81677764  0.06261025  0.45687772    -0.31400
C793        C  0.68760513  0.06221330  0.50263285     0.02800
C794        C  0.66563730  0.06178010  0.51126159    -0.33100
H795        H  0.70471029  0.02398691  0.47786439     0.13800
H796        H  0.75100848  0.02409883  0.46175695     0.13600
H797        H  0.77709074  0.10106145  0.48967033     0.13500
H798        H  0.73080553  0.10095090  0.50577243     0.12500
C799        C  0.14050701  0.98724820  0.24397444     0.18900
C800        C  0.12961939  0.98628190  0.22674176    -0.10300
C801        C  0.12990405  0.96027562  0.21727850    -0.11100
C802        C  0.14106797  0.93507648  0.22499077     0.20400
C803        C  0.15183381  0.93600838  0.24225252    -0.13100
C804        C  0.15154738  0.96201680  0.25171726    -0.11400
C805        C  0.14185757  0.90846409  0.21507099     0.01400
C806        C  0.14268961  0.88670441  0.20627690    -0.31400
C807        C  0.14055259  0.01408914  0.25368168     0.02800
C808        C  0.14092944  0.03626888  0.26209494    -0.33100
H809        H  0.12102645  0.00562656  0.22060741     0.13800
H810        H  0.12155415  0.95984413  0.20393706     0.13600
H811        H  0.16055480  0.91669371  0.24835435     0.13500
H812        H  0.16002383  0.96248064  0.26502840     0.12500
C813        C  0.04795984  0.06451095  0.35060288     0.18900
C814        C  0.04908329  0.08144059  0.36591807    -0.10300
C815        C  0.02638415  0.08051674  0.37807482    -0.11100
C816        C  0.00243245  0.06268721  0.37496373     0.20400
C817        C  0.00149269  0.04540883  0.35978127    -0.13100
C818        C  0.02420689  0.04634257  0.34760979    -0.11400
C819        C  0.97842585  0.06284342  0.38702855     0.01400
C820        C  0.95781706  0.06320653  0.39675159    -0.31400
C821        C  0.07021206  0.06746752  0.33747130     0.02800
C822        C  0.08809120  0.07302203  0.32641823    -0.33100
H823        H  0.06722657  0.09575340  0.36828560     0.13800
H824        H  0.02729523  0.09402962  0.38974022     0.13600
H825        H  0.98302919  0.03160627  0.35722476     0.13500
H826        H  0.02299739  0.03334917  0.33573781     0.12500
C827        C  0.21412437  0.36197959  0.47345414     0.18900
C828        C  0.21523905  0.37351041  0.49053286    -0.10300
C829        C  0.24131397  0.37368158  0.49992090    -0.11100
C830        C  0.26649329  0.36233292  0.49229336     0.20400
C831        C  0.26536461  0.35071257  0.47523368    -0.13100
C832        C  0.23928008  0.35054110  0.46584240    -0.11400
C833        C  0.29336516  0.36263891  0.50200726     0.01400
C834        C  0.31539080  0.36307908  0.51058545    -0.31400
C835        C  0.18734981  0.36227095  0.46364673     0.02800
C836        C  0.16526927  0.36290422  0.45513051    -0.33100
H837        H  0.19597279  0.38246369  0.49657370     0.13800
H838        H  0.24185839  0.38270040  0.51308699     0.13600
H839        H  0.28465388  0.34184152  0.46917585     0.13500
H840        H  0.23874597  0.34160429  0.45265570     0.12500
C841        C  0.14355212  0.22166501  0.34436038     0.18900
C842        C  0.14308712  0.21642147  0.36255474    -0.10300
C843        C  0.14120214  0.23953041  0.37440485    -0.11100
C844        C  0.13981713  0.26802218  0.36813530     0.20400
C845        C  0.14069603  0.27330771  0.34994393    -0.13100
C846        C  0.14259059  0.25017506  0.33808173    -0.11400
C847        C  0.13549582  0.29152177  0.38033291     0.01400
C848        C  0.12925888  0.31011419  0.39082631    -0.31400
C849        C  0.14414263  0.19772927  0.33220021     0.02800
C850        C  0.14405170  0.17717887  0.32239416    -0.33100
H851        H  0.14374304  0.19447551  0.36756168     0.13800
H852        H  0.14029288  0.23515666  0.38843202     0.13600
H853        H  0.13939623  0.29522064  0.34493641     0.13500
H854        H  0.14286639  0.25448532  0.32403923     0.12500
C855        C  0.84248066  0.48900967  0.22321883     0.18900
C856        C  0.83944015  0.46282448  0.21404461    -0.10300
C857        C  0.84020522  0.43641488  0.22312413    -0.11100
C858        C  0.84403095  0.43596387  0.24146183     0.20400
C859        C  0.84734064  0.46213743  0.25061571    -0.13100
C860        C  0.84657207  0.48854868  0.24153595    -0.11400
C861        C  0.84390742  0.40880083  0.25095115     0.01400
C862        C  0.84322250  0.38658173  0.25938709    -0.31400
C863        C  0.84102847  0.51624299  0.21384693     0.02800
C864        C  0.83950074  0.53857775  0.20556839    -0.33100
H865        H  0.83627944  0.46283005  0.19988829     0.13800
H866        H  0.83759440  0.41639280  0.21587123     0.13600
H867        H  0.85029031  0.46214030  0.26478914     0.13500
H868        H  0.84896826  0.50858140  0.24880548     0.12500
C869        C  0.98068538  0.36840494  0.37226605     0.18900
C870        C  0.95574126  0.35276636  0.37662678    -0.10300
C871        C  0.93288313  0.35085507  0.36461891    -0.11100
C872        C  0.93482431  0.36460531  0.34819150     0.20400
C873        C  0.95954265  0.38071516  0.34395096    -0.13100
C874        C  0.98242102  0.38263532  0.35597339    -0.11400
C875        C  0.91243786  0.36022760  0.33527305     0.01400
C876        C  0.89455923  0.35356865  0.32443576    -0.31400
C877        C  0.00490931  0.36879026  0.38418843     0.02800
C878        C  0.02551689  0.36828208  0.39392359    -0.33100
H879        H  0.95419678  0.34159781  0.38915634     0.13800
H880        H  0.91399114  0.33813479  0.36797920     0.13600
H881        H  0.96138954  0.39123277  0.33122951     0.13500
H882        H  0.00164343  0.39471319  0.35243915     0.12500
C883        C  0.84252316  0.16062018  0.37043023     0.18900
C884        C  0.84168965  0.18945902  0.37614155    -0.10300
C885        C  0.83979212  0.21197893  0.36385127    -0.11100
C886        C  0.83876419  0.20582092  0.34576476     0.20400
C887        C  0.83914178  0.17696738  0.34006042    -0.13100
C888        C  0.84104421  0.15443551  0.35235738    -0.11400
C889        C  0.83823758  0.22912070  0.33310006     0.01400
C890        C  0.83843437  0.24902736  0.32277907    -0.31400
C891        C  0.84686193  0.13762363  0.38302168     0.02800
C892        C  0.85307707  0.11914280  0.39361943    -0.33100
H893        H  0.84304230  0.19454815  0.39005857     0.13800
H894        H  0.83957988  0.23418954  0.36843497     0.13600
H895        H  0.83841990  0.17191792  0.32612223     0.13500
H896        H  0.84189332  0.13225055  0.34776083     0.12500
C897        C  0.21485046  0.06469235  0.97511546     0.18900
C898        C  0.22720889  0.03848812  0.98056729    -0.10300
C899        C  0.25335911  0.03840133  0.98987335    -0.11100
C900        C  0.26738344  0.06453414  0.99378810     0.20400
C901        C  0.25498404  0.09075876  0.98838974    -0.13100
C902        C  0.22881863  0.09084544  0.97907678    -0.11400
C903        C  0.29432172  0.06436736  0.00343444     0.01400
C904        C  0.31655632  0.06380956  0.01180631    -0.31400
C905        C  0.18818936  0.06466057  0.96518851     0.02800
C906        C  0.16632166  0.06421797  0.95646307    -0.33100
H907        H  0.21668041  0.01810140  0.97756810     0.13800
H908        H  0.26264738  0.01799602  0.99398660     0.13600
H909        H  0.26555858  0.11113409  0.99135517     0.13500
H910        H  0.21955667  0.11123884  0.97492132     0.12500
C911        C  0.63907676  0.98925448  0.22430647     0.18900
C912        C  0.65476394  0.96545083  0.21800221    -0.10300
C913        C  0.65482469  0.93934042  0.22737734    -0.11100
C914        C  0.63918383  0.93680656  0.24312982     0.20400
C915        C  0.62338474  0.96057184  0.24940825    -0.13100
C916        C  0.62332425  0.98670383  0.24002545    -0.11400
C917        C  0.63970437  0.91002414  0.25296267     0.01400
C918        C  0.64042344  0.88793499  0.26149666    -0.31400
C919        C  0.63930477  0.01618620  0.21462414     0.02800
C920        C  0.64012280  0.03817611  0.20599973    -0.33100
H921        H  0.66701305  0.96710440  0.20587311     0.13800
H922        H  0.66715693  0.92117709  0.22237885     0.13600
H923        H  0.61122858  0.95893469  0.26157278     0.13500
H924        H  0.61108563  0.00491144  0.24504926     0.12500
C925        C  0.72667187  0.18983742  0.22415738     0.18900
C926        C  0.71293596  0.21612035  0.22805308    -0.10300
C927        C  0.72799165  0.23812264  0.23681478    -0.11100
C928        C  0.75689361  0.23397835  0.24170260     0.20400
C929        C  0.77061060  0.20767630  0.23783484    -0.13100
C930        C  0.75555650  0.18567630  0.22907341    -0.11400
C931        C  0.77247475  0.25636928  0.25092871     0.01400
C932        C  0.78684411  0.27347254  0.25917292    -0.31400
C933        C  0.71119265  0.16753785  0.21478754     0.02800
C934        C  0.69698838  0.15052380  0.20637108    -0.33100
H935        H  0.69062761  0.21962279  0.22427325     0.13800
H936        H  0.71712154  0.25830715  0.23977224     0.13600
H937        H  0.79292876  0.20418432  0.24159636     0.13500
H938        H  0.76643835  0.16550527  0.22609818     0.12500
C939        C  0.54897938  0.05954798  0.11727087     0.18900
C940        C  0.55347698  0.06465570  0.09926081    -0.10300
C941        C  0.53024405  0.06333185  0.08746688    -0.11100
C942        C  0.50240175  0.05695954  0.09363692     0.20400
C943        C  0.49802680  0.05123335  0.11158521    -0.13100
C944        C  0.52124778  0.05255262  0.12337233    -0.11400
C945        C  0.47814225  0.05743076  0.08173309     0.01400
C946        C  0.45738643  0.05840280  0.07212340    -0.31400
C947        C  0.57215593  0.06395701  0.12966690     0.02800
C948        C  0.59033682  0.07064597  0.14031500    -0.33100
H949        H  0.57476420  0.07034360  0.09441324     0.13800
H950        H  0.53387568  0.06785584  0.07362488     0.13600
H951        H  0.47659055  0.04634624  0.11651378     0.13500
H952        H  0.51745196  0.04882406  0.13728689     0.12500
C953        C  0.34189912  0.43442027  0.22687277     0.18900
C954        C  0.33998018  0.46053724  0.21752690    -0.10300
C955        C  0.33900985  0.48694568  0.22657366    -0.11100
C956        C  0.33994338  0.48745902  0.24504417     0.20400
C957        C  0.34191938  0.46134430  0.25439920    -0.13100
C958        C  0.34288858  0.43492102  0.24534733    -0.11400
C959        C  0.33893103  0.51470707  0.25438353     0.01400
C960        C  0.33828434  0.53728160  0.26243900    -0.31400
C961        C  0.34256711  0.40723033  0.21746212     0.02800
C962        C  0.34269237  0.38501914  0.20903311    -0.33100
H963        H  0.33917393  0.46048106  0.20325298     0.13800
H964        H  0.33750327  0.50694168  0.21916965     0.13600
H965        H  0.34267937  0.46141023  0.26867379     0.13500
H966        H  0.34434772  0.41491558  0.25274543     0.12500
C967        C  0.22629697  0.18832847  0.24250618     0.18900
C968        C  0.23992206  0.21028656  0.25218024    -0.10300
C969        C  0.25394158  0.23295010  0.24344184    -0.11100
C970        C  0.25430579  0.23381884  0.22498473     0.20400
C971        C  0.24068349  0.21185870  0.21530272    -0.13100
C972        C  0.22665337  0.18918657  0.22404534    -0.11400
C973        C  0.26985839  0.25638051  0.21596852     0.01400
C974        C  0.28471663  0.27339479  0.20802382    -0.31400
C975        C  0.21091683  0.16572694  0.25159296     0.02800
C976        C  0.19657678  0.14877318  0.25992886    -0.33100
H977        H  0.23961902  0.20993021  0.26646351     0.13800
H978        H  0.26458711  0.24968612  0.25105750     0.13600
H979        H  0.24102775  0.21220187  0.20102012     0.13500
H980        H  0.21603687  0.17242530  0.21643578     0.12500
C981        C  0.34083121  0.20140787  0.12495377     0.18900
C982        C  0.32565561  0.20314883  0.10898372    -0.10300
C983        C  0.32709459  0.18040496  0.09681351    -0.11100
C984        C  0.34366918  0.15578611  0.10057207     0.20400
C985        C  0.35843754  0.15386307  0.11666586    -0.13100
C986        C  0.35700695  0.17658838  0.12882192    -0.11400
C987        C  0.34727721  0.13341752  0.08750839     0.01400
C988        C  0.35315511  0.11549827  0.07650384    -0.31400
C989        C  0.34064683  0.22543257  0.13708377     0.02800
C990        C  0.34101613  0.24589582  0.14697455    -0.33100
H991        H  0.31313142  0.22225667  0.10582242     0.13800
H992        H  0.31576718  0.18225479  0.08436115     0.13600
H993        H  0.37151011  0.13505416  0.11966443     0.13500
H994        H  0.36889074  0.17501142  0.14109419     0.12500
C995        C  0.76658947  0.36423933  0.97390988     0.18900
C996        C  0.76643425  0.36502515  0.99238283    -0.10300
C997        C  0.74018204  0.36544183  0.00158117    -0.11100
C998        C  0.71389624  0.36508283  0.99236544     0.20400
C999        C  0.71405163  0.36431941  0.97389472    -0.13100
C1000       C  0.74030292  0.36390215  0.96469653    -0.11400
C1001       C  0.68688584  0.36543413  0.00190493     0.01400
C1002       C  0.66484326  0.36566930  0.01045221    -0.31400
C1003       C  0.79360252  0.36395170  0.96436622     0.02800
C1004       C  0.81574681  0.36401017  0.95591114    -0.33100
H1005       H  0.78659541  0.36533144  0.99967514     0.13800
H1006       H  0.74037269  0.36603712  0.01584737     0.13600
H1007       H  0.69389068  0.36404110  0.96660258     0.13500
H1008       H  0.74011045  0.36333393  0.95043052     0.12500
C1009       C  0.64802438  0.21971515  0.12045260     0.18900
C1010       C  0.63675676  0.24633049  0.12599678    -0.10300
C1011       C  0.63510133  0.26954414  0.11420883    -0.11100
C1012       C  0.64474841  0.26631110  0.09680640     0.20400
C1013       C  0.65645182  0.23982706  0.09131878    -0.13100
C1014       C  0.65811641  0.21658406  0.10312401    -0.11400
C1015       C  0.64053400  0.28946329  0.08434386     0.01400
C1016       C  0.63390052  0.30822662  0.07405250    -0.31400
C1017       C  0.64823654  0.19543283  0.13237584     0.02800
C1018       C  0.64756688  0.17509165  0.14234585    -0.33100
H1019       H  0.62880166  0.24898685  0.13933691     0.13800
H1020       H  0.62576121  0.28981402  0.11855769     0.13600
H1021       H  0.66373288  0.23697768  0.07785090     0.13500
H1022       H  0.66679087  0.19608139  0.09866944     0.12500
C1023       C  0.44256449  0.35910967  0.12357900     0.18900
C1024       C  0.43835732  0.37421922  0.10776868    -0.10300
C1025       C  0.46071372  0.37596077  0.09537610    -0.11100
C1026       C  0.48731265  0.36254614  0.09873644     0.20400
C1027       C  0.49162753  0.34778959  0.11465389    -0.13100
C1028       C  0.46930430  0.34605994  0.12703289    -0.11400
C1029       C  0.51004569  0.36345024  0.08578863     0.01400
C1030       C  0.52950460  0.36382554  0.07521520    -0.31400
C1031       C  0.41909409  0.35541304  0.13583177     0.02800
C1032       C  0.40008390  0.34943554  0.14607711    -0.33100
H1033       H  0.41772378  0.38423417  0.10491675     0.13800
H1034       H  0.45715283  0.38744050  0.08310724     0.13600
H1035       H  0.51209509  0.33734619  0.11739259     0.13500
H1036       H  0.47273896  0.33416315  0.13917077     0.12500
C1037       C  0.71712262  0.86569054  0.97374688     0.18900
C1038       C  0.73915439  0.84637174  0.96899018    -0.10300
C1039       C  0.76527378  0.84607977  0.97833520    -0.11100
C1040       C  0.76955950  0.86510833  0.99248874     0.20400
C1041       C  0.74751496  0.88440303  0.99725581    -0.13100
C1042       C  0.72140076  0.88469491  0.98791285    -0.11400
C1043       C  0.79640963  0.86477042  0.00220525     0.01400
C1044       C  0.81845536  0.86475310  0.01075656    -0.31400
C1045       C  0.69032018  0.86619454  0.96398205     0.02800
C1046       C  0.66820465  0.86671630  0.95550245    -0.33100
H1047       H  0.73615790  0.83160303  0.95806536     0.13800
H1048       H  0.78211764  0.83102175  0.97452015     0.13600
H1049       H  0.75051676  0.89919031  0.00817148     0.13500
H1050       H  0.70456854  0.89977151  0.99172124     0.12500
C1051       C  0.46985570  0.97923625  0.99208744     0.18900
C1052       C  0.49467536  0.99462824  0.98706842    -0.10300
C1053       C  0.51728590  0.98051199  0.97833406    -0.11100
C1054       C  0.51522385  0.95089796  0.97460737     0.20400
C1055       C  0.49042494  0.93549870  0.97965056    -0.13100
C1056       C  0.46781623  0.94961360  0.98838325    -0.11400
C1057       C  0.53807659  0.93627444  0.96525836     0.01400
C1058       C  0.55530980  0.92228880  0.95689531    -0.31400
C1059       C  0.44692349  0.99386770  0.00136397     0.02800
C1060       C  0.42956821  0.00774394  0.00970400    -0.33100
H1061       H  0.49655003  0.01752208  0.98992588     0.13800
H1062       H  0.53628763  0.99267191  0.97446058     0.13600
H1063       H  0.48854584  0.91260607  0.97678992     0.13500
H1064       H  0.44881239  0.93745264  0.99225161     0.12500
C1065       C  0.34685030  0.99004858  0.72617190     0.18900
C1066       C  0.32088816  0.97774744  0.73208261    -0.10300
C1067       C  0.32100095  0.95091328  0.74067035    -0.11100
C1068       C  0.34707489  0.93612353  0.74339766     0.20400
C1069       C  0.37305144  0.94838523  0.73745993    -0.13100
C1070       C  0.37293825  0.97523984  0.72886313    -0.11400
C1071       C  0.34712385  0.90870724  0.75257323     0.01400
C1072       C  0.34656528  0.88628592  0.76078882    -0.31400
C1073       C  0.34659956  0.01756067  0.71709983     0.02800
C1074       C  0.34596378  0.04008401  0.70898822    -0.33100
H1075       H  0.30055662  0.98888876  0.73004438     0.13800
H1076       H  0.30077860  0.94173841  0.74521694     0.13600
H1077       H  0.39337376  0.93723360  0.73950826     0.13500
H1078       H  0.39315174  0.98443109  0.72431554     0.12500
C1079       C  0.48230028  0.86849102  0.87362904     0.18900
C1080       C  0.45729085  0.85334220  0.87848391    -0.10300
C1081       C  0.43411995  0.85109593  0.86670979    -0.11100
C1082       C  0.43581560  0.86403160  0.85002573     0.20400
C1083       C  0.46060478  0.87965979  0.84529614    -0.13100
C1084       C  0.48378530  0.88190937  0.85707644    -0.11400
C1085       C  0.41317623  0.85924240  0.83731428     0.01400
C1086       C  0.39547406  0.85242744  0.82639784    -0.31400
C1087       C  0.50682634  0.86924410  0.88532453     0.02800
C1088       C  0.52768089  0.86913499  0.89487381    -0.33100
H1089       H  0.45592949  0.84280336  0.89122321     0.13800
H1090       H  0.41518492  0.83873797  0.87045295     0.13600
H1091       H  0.46227448  0.88953167  0.83237367     0.13500
H1092       H  0.50304186  0.89360343  0.85315773     0.12500
C1093       C  0.26631077  0.56137642  0.97440673     0.18900
C1094       C  0.24959194  0.53608645  0.97529247    -0.10300
C1095       C  0.22330418  0.53602146  0.98446773    -0.11100
C1096       C  0.21349426  0.56123629  0.99281512     0.20400
C1097       C  0.23017970  0.58655197  0.99190296    -0.13100
C1098       C  0.25647653  0.58661752  0.98272373    -0.11400
C1099       C  0.18662353  0.56098991  0.00254797     0.01400
C1100       C  0.16456025  0.56057380  0.01110005    -0.31400
C1101       C  0.29335633  0.56142916  0.96484948     0.02800
C1102       C  0.31564339  0.56127429  0.95650927    -0.33100
H1103       H  0.25687704  0.51645322  0.96891168     0.13800
H1104       H  0.21066741  0.51627298  0.98509082     0.13600
H1105       H  0.22291296  0.60616643  0.99831320     0.13500
H1106       H  0.26914373  0.60634831  0.98212514     0.12500
C1107       C  0.46727723  0.47773146  0.97672639     0.18900
C1108       C  0.47672062  0.45029546  0.97138758    -0.10300
C1109       C  0.49894498  0.43636831  0.98058628    -0.11100
C1110       C  0.51193515  0.44982595  0.99514007     0.20400
C1111       C  0.50240524  0.47720852  0.00053313    -0.13100
C1112       C  0.48017350  0.49114082  0.99133088    -0.11400
C1113       C  0.53436642  0.43505018  0.00478866     0.01400
C1114       C  0.55165947  0.42084634  0.01297631    -0.31400
C1115       C  0.44536381  0.49273853  0.96677540     0.02800
C1116       C  0.42874948  0.50688105  0.95804488    -0.33100
H1117       H  0.46705056  0.43977128  0.96006389     0.13800
H1118       H  0.50600314  0.41512799  0.97635279     0.13600
H1119       H  0.51214646  0.48776760  0.01182149     0.13500
H1120       H  0.47317677  0.51242240  0.99552466     0.12500
C1121       C  0.34136398  0.65707631  0.86903419     0.18900
C1122       C  0.33085984  0.68423086  0.87417970    -0.10300
C1123       C  0.32981567  0.70698556  0.86201631    -0.11100
C1124       C  0.33933152  0.70270674  0.84466192     0.20400
C1125       C  0.34936001  0.67542050  0.83944416    -0.13100
C1126       C  0.35039861  0.65267466  0.85160130    -0.11400
C1127       C  0.33976853  0.72653666  0.83241391     0.01400
C1128       C  0.34065376  0.74687234  0.82245061    -0.31400
C1129       C  0.34503513  0.63443192  0.88189178     0.02800
C1130       C  0.35109360  0.61623320  0.89267439    -0.33100
H1131       H  0.32406377  0.68797135  0.88766167     0.13800
H1132       H  0.32208972  0.72800806  0.86621402     0.13600
H1133       H  0.35684585  0.67187385  0.82607972     0.13500
H1134       H  0.35880941  0.63185915  0.84751340     0.12500
C1135       C  0.64077505  0.43632378  0.72623518     0.18900
C1136       C  0.61950232  0.45736650  0.72322093    -0.10300
C1137       C  0.62030317  0.48373406  0.73234328    -0.11100
C1138       C  0.64239618  0.48930012  0.74454144     0.20400
C1139       C  0.66365195  0.46824477  0.74756888    -0.13100
C1140       C  0.66285108  0.44187850  0.73844708    -0.11400
C1141       C  0.64312298  0.51641188  0.75406822     0.01400
C1142       C  0.64371826  0.53872780  0.76240644    -0.31400
C1143       C  0.64024072  0.40933798  0.71657259     0.02800
C1144       C  0.64013035  0.38722473  0.70802965    -0.33100
H1145       H  0.60236124  0.45342463  0.71379714     0.13800
H1146       H  0.60370252  0.49977049  0.72988039     0.13600
H1147       H  0.68082589  0.47220841  0.75696737     0.13500
H1148       H  0.67948448  0.42586533  0.74088528     0.12500
C1149       C  0.49981506  0.56300878  0.87302687     0.18900
C1150       C  0.52734429  0.57166607  0.87866023    -0.10300
C1151       C  0.55018077  0.57339636  0.86659255    -0.11100
C1152       C  0.54564745  0.56643100  0.84881549     0.20400
C1153       C  0.51817671  0.55751550  0.84320763    -0.13100
C1154       C  0.49533428  0.55578242  0.85527886    -0.11400
C1155       C  0.56869463  0.57015678  0.83620169     0.01400
C1156       C  0.58739463  0.57583036  0.82564250    -0.31400
C1157       C  0.47605437  0.56214157  0.88533993     0.02800
C1158       C  0.45579358  0.56172870  0.89537968    -0.33100
H1159       H  0.53107559  0.57738941  0.89233038     0.13800
H1160       H  0.57123453  0.58055828  0.87106475     0.13600
H1161       H  0.51431904  0.55231330  0.82947259     0.13500
H1162       H  0.47414514  0.54913916  0.85074635     0.12500
C1163       C  0.64564481  0.72393741  0.84514112     0.18900
C1164       C  0.64896578  0.71921353  0.86328180    -0.10300
C1165       C  0.64748763  0.74246455  0.87506210    -0.11100
C1166       C  0.64273491  0.77057740  0.86876836     0.20400
C1167       C  0.63987897  0.77536822  0.85060323    -0.13100
C1168       C  0.64136279  0.75210723  0.83881718    -0.11400
C1169       C  0.63861793  0.79404310  0.88102239     0.01400
C1170       C  0.63240147  0.81263656  0.89152258    -0.31400
C1171       C  0.64578635  0.69979314  0.83311686     0.02800
C1172       C  0.64549437  0.67920803  0.82333072    -0.33100
H1173       H  0.65222814  0.69753004  0.86833176     0.13800
H1174       H  0.64947236  0.73844964  0.88908648     0.13600
H1175       H  0.63594361  0.79696091  0.84559200     0.13500
H1176       H  0.63871136  0.75601915  0.82482475     0.12500
C1177       C  0.71397319  0.56087588  0.47458358     0.18900
C1178       C  0.71427103  0.55734499  0.49293941    -0.10300
C1179       C  0.74054478  0.55729484  0.50212817    -0.11100
C1180       C  0.76671091  0.56076627  0.49301802     0.20400
C1181       C  0.76640346  0.56428110  0.47466494    -0.13100
C1182       C  0.74013915  0.56433197  0.46547956    -0.11400
C1183       C  0.79377749  0.56081822  0.50251651     0.01400
C1184       C  0.81609542  0.56094315  0.51080439    -0.31400
C1185       C  0.68695578  0.56081668  0.46503475     0.02800
C1186       C  0.66485214  0.56060569  0.45653765    -0.33100
H1187       H  0.69420767  0.55462049  0.50014649     0.13800
H1188       H  0.74046206  0.55456593  0.51630291     0.13600
H1189       H  0.78646324  0.56699276  0.46745257     0.13500
H1190       H  0.74023057  0.56704899  0.45130409     0.12500
C1191       C  0.01443998  0.45008219  0.47437438     0.18900
C1192       C  0.00543585  0.44021109  0.49096807    -0.10300
C1193       C  0.98310701  0.45440235  0.49992428    -0.11100
C1194       C  0.96957570  0.47847671  0.49230554     0.20400
C1195       C  0.97857536  0.48834147  0.47570994    -0.13100
C1196       C  0.00090306  0.47415138  0.46675451    -0.11400
C1197       C  0.94734574  0.49379582  0.50180213     0.01400
C1198       C  0.93033379  0.50810785  0.51013218    -0.31400
C1199       C  0.03660057  0.43471955  0.46484525     0.02800
C1200       C  0.05339190  0.42033507  0.45639752    -0.33100
H1201       H  0.01558770  0.42150393  0.49693996     0.13800
H1202       H  0.97646723  0.44667372  0.51279144     0.13600
H1203       H  0.96840618  0.50703236  0.46972992     0.13500
H1204       H  0.00752395  0.48186490  0.45388026     0.12500
C1205       C  0.14184291  0.43827759  0.74300841     0.18900
C1206       C  0.16193236  0.44261154  0.72941873    -0.10300
C1207       C  0.16190855  0.46849888  0.71980512    -0.11100
C1208       C  0.14181353  0.49028389  0.72370247     0.20400
C1209       C  0.12165554  0.48592828  0.73725939    -0.13100
C1210       C  0.12167959  0.46002506  0.74687918    -0.11400
C1211       C  0.14196023  0.51700590  0.71378466     0.01400
C1212       C  0.14255938  0.53902650  0.70516988    -0.31400
C1213       C  0.14220350  0.41174092  0.75310687     0.02800
C1214       C  0.14285380  0.38980110  0.76179558    -0.33100
H1215       H  0.17765901  0.42603418  0.72629465     0.13800
H1216       H  0.17760116  0.47154852  0.70935880     0.13600
H1217       H  0.10599063  0.50254901  0.74041230     0.13500
H1218       H  0.10604917  0.45699826  0.75736220     0.12500
C1219       C  0.23420715  0.68821892  0.72254350     0.18900
C1220       C  0.23890397  0.71506888  0.71440498    -0.10300
C1221       C  0.25346138  0.73712790  0.72341928    -0.11100
C1222       C  0.26334908  0.73247695  0.74064306     0.20400
C1223       C  0.25879008  0.70557479  0.74874706    -0.13100
C1224       C  0.24422822  0.68351703  0.73973361    -0.11400
C1225       C  0.27852977  0.75501219  0.74998278     0.01400
C1226       C  0.29230359  0.77227461  0.75847585    -0.31400
C1227       C  0.21807616  0.66607445  0.71345565     0.02800
C1228       C  0.20288841  0.64948544  0.70537315    -0.33100
H1229       H  0.23112679  0.71901077  0.70114716     0.13800
H1230       H  0.25692727  0.75778033  0.71699209     0.13600
H1231       H  0.26642112  0.70168969  0.76204255     0.13500
H1232       H  0.24061192  0.66292241  0.74619917     0.12500
C1233       C  0.00002521  0.56557854  0.59423359     0.18900
C1234       C  0.99452883  0.56299921  0.61233907    -0.10300
C1235       C  0.01732249  0.56431014  0.62443964    -0.11100
C1236       C  0.04575591  0.56815105  0.61849995     0.20400
C1237       C  0.05129323  0.57041035  0.60038138    -0.13100
C1238       C  0.02848969  0.56909694  0.58827524    -0.11400
C1239       C  0.06892251  0.57162934  0.63102618     0.01400
C1240       C  0.08766795  0.57709052  0.64157748    -0.31400
C1241       C  0.97639935  0.56509696  0.58185136     0.02800
C1242       C  0.95611639  0.56474763  0.57184961    -0.33100
H1243       H  0.97260586  0.56030935  0.61710723     0.13800
H1244       H  0.01273853  0.56277723  0.63841454     0.13600
H1245       H  0.07315816  0.57362514  0.59563754     0.13500
H1246       H  0.03300350  0.57115116  0.57431800     0.12500
C1247       C  0.84415786  0.98899271  0.74304543     0.18900
C1248       C  0.86990663  0.97324309  0.74131572    -0.10300
C1249       C  0.87009249  0.94686118  0.73220578    -0.11100
C1250       C  0.84452154  0.93602657  0.72478232     0.20400
C1251       C  0.81877760  0.95176235  0.72653812    -0.13100
C1252       C  0.81859228  0.97812972  0.73564163    -0.11400
C1253       C  0.84468855  0.90905453  0.71514757     0.01400
C1254       C  0.84426304  0.88694733  0.70662887    -0.31400
C1255       C  0.84388559  0.01610745  0.75252957     0.02800
C1256       C  0.84344986  0.03850749  0.76075886    -0.33100
H1257       H  0.88981170  0.98135130  0.74699738     0.13800
H1258       H  0.89015403  0.93496332  0.73092251     0.13600
H1259       H  0.79887237  0.94368210  0.72084065     0.13500
H1260       H  0.79853112  0.99003682  0.73690115     0.12500
C1261       C  0.73053217  0.69084851  0.74421819     0.18900
C1262       C  0.74443653  0.71330023  0.75332934    -0.10300
C1263       C  0.75800622  0.73568539  0.74401976    -0.11100
C1264       C  0.75765107  0.73581316  0.72554017     0.20400
C1265       C  0.74374576  0.71336571  0.71643742    -0.13100
C1266       C  0.73018595  0.69098848  0.72574254    -0.11400
C1267       C  0.77259830  0.75817567  0.71588045     0.01400
C1268       C  0.78673200  0.77508743  0.70732821    -0.31400
C1269       C  0.71549122  0.66846933  0.75381561     0.02800
C1270       C  0.70106596  0.65143132  0.76209387    -0.33100
H1271       H  0.74468520  0.71355821  0.76761610     0.13800
H1272       H  0.76883190  0.75279765  0.75121193     0.13600
H1273       H  0.74347617  0.71310992  0.70215067     0.13500
H1274       H  0.71935088  0.67388957  0.71854437     0.12500
C1275       C  0.83970212  0.65904040  0.59740926     0.18900
C1276       C  0.84687365  0.65418231  0.61511541    -0.10300
C1277       C  0.84556676  0.67687813  0.62729280    -0.11100
C1278       C  0.83713026  0.70456967  0.62182451     0.20400
C1279       C  0.82942449  0.70931820  0.60418367    -0.13100
C1280       C  0.83073734  0.68661055  0.59199866    -0.11400
C1281       C  0.83742335  0.72829488  0.63414443     0.01400
C1282       C  0.83827553  0.74848890  0.64421152    -0.31400
C1283       C  0.84382184  0.63637838  0.58461756     0.02800
C1284       C  0.85029982  0.61810283  0.57397693    -0.33100
H1285       H  0.85408704  0.63303274  0.61941890     0.13800
H1286       H  0.85164434  0.67296534  0.64088173     0.13600
H1287       H  0.82293745  0.73065629  0.59979381     0.13500
H1288       H  0.82539129  0.69069475  0.57831352     0.12500
C1289       C  0.21619232  0.86547540  0.49197285     0.18900
C1290       C  0.23075126  0.89141975  0.48833667    -0.10300
C1291       C  0.25671268  0.89106337  0.47884705    -0.11100
C1292       C  0.26831168  0.86477820  0.47294317     0.20400
C1293       C  0.25372266  0.83883527  0.47654057    -0.13100
C1294       C  0.22775418  0.83919141  0.48603348    -0.11400
C1295       C  0.29500333  0.86448733  0.46308994     0.01400
C1296       C  0.31707374  0.86470755  0.45457730    -0.31400
C1297       C  0.18969651  0.86581390  0.50202562     0.02800
C1298       C  0.16791732  0.86615784  0.51081514    -0.33100
H1299       H  0.22209111  0.91186022  0.49287004     0.13800
H1300       H  0.26775038  0.91128844  0.47612557     0.13600
H1301       H  0.26241317  0.81839501  0.47203008     0.13500
H1302       H  0.21673808  0.81896559  0.48878189     0.12500
C1303       C  0.97032700  0.97836216  0.47536739     0.18900
C1304       C  0.98141602  0.98970451  0.49112241    -0.10300
C1305       C  0.00394985  0.97553848  0.49990259    -0.11100
C1306       C  0.01561815  0.94999371  0.49294856     0.20400
C1307       C  0.00459755  0.93869178  0.47716280    -0.13100
C1308       C  0.98205844  0.95286306  0.46837919    -0.11400
C1309       C  0.03792369  0.93467751  0.50239816     0.01400
C1310       C  0.05492507  0.92046274  0.51080723    -0.31400
C1311       C  0.94775864  0.99354609  0.46606182     0.02800
C1312       C  0.93052361  0.00786239  0.45789082    -0.33100
H1313       H  0.97268045  0.00950734  0.49659602     0.13800
H1314       H  0.01215722  0.98440825  0.51214320     0.13600
H1315       H  0.01331634  0.91887067  0.47170354     0.13500
H1316       H  0.97382681  0.94398054  0.45614818     0.12500
C1317       C  0.14885802  0.72452440  0.62271453     0.18900
C1318       C  0.13032391  0.74778710  0.62619250    -0.10300
C1319       C  0.12868964  0.77101071  0.61441414    -0.11100
C1320       C  0.14560191  0.77115270  0.59908275     0.20400
C1321       C  0.16452550  0.74812210  0.59573245    -0.13100
C1322       C  0.16617199  0.72486421  0.60753543    -0.11400
C1323       C  0.14178894  0.79389457  0.58628925     0.01400
C1324       C  0.13538228  0.81208305  0.57556568    -0.31400
C1325       C  0.14922704  0.69991398  0.63438899     0.02800
C1326       C  0.14864927  0.67911269  0.64400537    -0.33100
H1327       H  0.11676815  0.74773471  0.63784708     0.13800
H1328       H  0.11380430  0.78855913  0.61707395     0.13600
H1329       H  0.17753624  0.74786559  0.58385132     0.13500
H1330       H  0.18052425  0.70696016  0.60467948     0.12500
C1331       C  0.98501199  0.86529293  0.59518767     0.18900
C1332       C  0.96494047  0.84276564  0.59346498    -0.10300
C1333       C  0.94163030  0.84071149  0.60513470    -0.11100
C1334       C  0.93820341  0.86118861  0.61860217     0.20400
C1335       C  0.95811905  0.88390609  0.62024427    -0.13100
C1336       C  0.98146861  0.88597013  0.60854727    -0.11400
C1337       C  0.91515217  0.85773655  0.63121640     0.01400
C1338       C  0.89668949  0.85187118  0.64187713    -0.31400
C1339       C  0.00951348  0.86668604  0.58348248     0.02800
C1340       C  0.03009895  0.86703338  0.57371317    -0.33100
H1341       H  0.96748976  0.82660936  0.58322668     0.13800
H1342       H  0.92651140  0.82293127  0.60381299     0.13600
H1343       H  0.95582393  0.89974679  0.63068362     0.13500
H1344       H  0.99689393  0.90344388  0.61003618     0.12500
loop_ 
_geom_bond_atom_site_label_1 
_geom_bond_atom_site_label_2 
_geom_bond_distance 
_geom_bond_site_symmetry_2 
_ccdc_geom_bond_type 
O1            V9   1.904       .  S
O1           C11   1.264       .  A
O2            V9   1.903       .  S
O2           C12   1.264       .  A
O3            V9   1.896       .  S
O3           C13   1.262       .  A
O4            V9   1.896       .  S
O4           C14   1.262       .  A
O5           V10   1.906       .  S
O5           C14   1.264       .  A
O6           V10   1.906       .  S
O6           C13   1.264       .  A
O7           V10   1.900       .  S
O7           C12   1.262       .  A
O8           V10   1.901       .  S
O8           C11   1.263       .  A
V9           V10   2.090       .  T
C11        C1298   1.439       .  S
C12        C1340   1.436       .  S
C13        C1310   1.437       .  S
C14        C1324   1.436       .  S
O15          V23   1.907       .  S
O15          C25   1.264       .  A
O16          V23   1.904       .  S
O16          C26   1.264       .  A
O17          V23   1.895       .  S
O17          C27   1.261       .  A
O18          V23   1.895       .  S
O18          C28   1.261       .  A
O19          V24   1.908       .  S
O19          C28   1.265       .  A
O20          V24   1.907       .  S
O20          C27   1.265       .  A
O21          V24   1.898       .  S
O21          C26   1.262       .  A
O22          V24   1.900       .  S
O22          C25   1.263       .  A
V23          V24   2.090       .  T
C25        C1254   1.440       .  S
C26        C1282   1.436       .  S
C27        C1338   1.436       .  S
C28        C1268   1.437       .  S
O29          V37   1.906       .  S
O29          C39   1.264       .  A
O30          V37   1.904       .  S
O30          C40   1.264       .  A
O31          V37   1.896       .  S
O31          C41   1.262       .  A
O32          V37   1.896       .  S
O32          C42   1.262       .  A
O33          V38   1.906       .  S
O33          C42   1.264       .  A
O34          V38   1.905       .  S
O34          C41   1.264       .  A
O35          V38   1.900       .  S
O35          C40   1.262       .  A
O36          V38   1.902       .  S
O36          C39   1.263       .  A
V37          V38   2.090       .  T
C39        C1212   1.441       .  S
C40        C1326   1.437       .  S
C41        C1240   1.436       .  S
C42        C1228   1.436       .  S
O43          V51   1.906       .  S
O43          C53   1.264       .  A
O44          V51   1.904       .  S
O44          C54   1.264       .  A
O45          V51   1.896       .  S
O45          C55   1.262       .  A
O46          V51   1.896       .  S
O46          C56   1.261       .  A
O47          V52   1.905       .  S
O47          C56   1.264       .  A
O48          V52   1.906       .  S
O48          C55   1.264       .  A
O49          V52   1.898       .  S
O49          C54   1.262       .  A
O50          V52   1.901       .  S
O50          C53   1.263       .  A
V51          V52   2.090       .  T
C53        C1184   1.440       .  S
C54        C1242   1.436       .  S
C55        C1198   1.436       .  S
C56        C1284   1.435       .  S
O57          V65   1.907       .  S
O57          C67   1.265       .  A
O58          V65   1.904       .  S
O58          C68   1.264       .  A
O59          V65   1.896       .  S
O59          C69   1.261       .  A
O60          V65   1.896       .  S
O60          C70   1.261       .  A
O61          V66   1.907       .  S
O61          C70   1.265       .  A
O62          V66   1.908       .  S
O62          C69   1.265       .  A
O63          V66   1.899       .  S
O63          C68   1.262       .  A
O64          V66   1.903       .  S
O64          C67   1.263       .  A
V65          V66   2.090       .  T
C67        C1142   1.442       .  S
C68        C1172   1.436       .  S
C69        C1270   1.437       .  S
C70        C1156   1.437       .  S
O71          V79   1.907       .  S
O71          C81   1.264       .  A
O72          V79   1.905       .  S
O72          C82   1.264       .  A
O73          V79   1.895       .  S
O73          C83   1.261       .  A
O74          V79   1.896       .  S
O74          C84   1.261       .  A
O75          V80   1.906       .  S
O75          C84   1.264       .  A
O76          V80   1.905       .  S
O76          C83   1.264       .  A
O77          V80   1.900       .  S
O77          C82   1.262       .  A
O78          V80   1.902       .  S
O78          C81   1.263       .  A
V79          V80   2.090       .  T
C81        C1102   1.441       .  S
C82        C1158   1.438       .  S
C83        C1130   1.435       .  S
C84        C1116   1.437       .  S
O85          V93   1.907       .  S
O85          C95   1.264       .  A
O86          V93   1.904       .  S
O86          C96   1.264       .  A
O87          V93   1.896       .  S
O87          C97   1.261       .  A
O88          V93   1.895       .  S
O88          C98   1.261       .  A
O89          V94   1.906       .  S
O89          C98   1.264       .  A
O90          V94   1.906       .  S
O90          C97   1.264       .  A
O91          V94   1.898       .  S
O91          C96   1.262       .  A
O92          V94   1.901       .  S
O92          C95   1.263       .  A
V93          V94   2.090       .  T
C95        C1072   1.441       .  S
C96        C1128   1.436       .  S
C97        C1226   1.436       .  S
C98        C1086   1.435       .  S
O99         V107   1.905       .  S
O99         C109   1.264       .  A
O100        V107   1.903       .  S
O100        C110   1.264       .  A
O101        V107   1.895       .  S
O101        C111   1.261       .  A
O102        V107   1.895       .  S
O102        C112   1.261       .  A
O103        V108   1.906       .  S
O103        C112   1.264       .  A
O104        V108   1.906       .  S
O104        C111   1.264       .  A
O105        V108   1.899       .  S
O105        C110   1.262       .  A
O106        V108   1.902       .  S
O106        C109   1.263       .  A
V107        V108   2.090       .  T
C109       C1046   1.440       .  S
C110       C1088   1.436       .  S
C111       C1170   1.436       .  S
C112       C1058   1.436       .  S
O113        V121   1.906       .  S
O113        C123   1.264       .  A
O114        V121   1.904       .  S
O114        C124   1.264       .  A
O115        V121   1.895       .  S
O115        C125   1.261       .  A
O116        V121   1.895       .  S
O116        C126   1.261       .  A
O117        V122   1.906       .  S
O117        C126   1.264       .  A
O118        V122   1.907       .  S
O118        C125   1.265       .  A
O119        V122   1.897       .  S
O119        C124   1.262       .  A
O120        V122   1.900       .  S
O120        C123   1.262       .  A
V121        V122   2.090       .  T
C123       C1002   1.439       .  S
C124       C1030   1.434       .  S
C125       C1114   1.437       .  S
C126       C1016   1.436       .  S
O127        V135   1.907       .  S
O127        C137   1.264       .  A
O128        V135   1.905       .  S
O128        C138   1.264       .  A
O129        V135   1.894       .  S
O129        C139   1.261       .  A
O130        V135   1.894       .  S
O130        C140   1.261       .  A
O131        V136   1.904       .  S
O131        C140   1.264       .  A
O132        V136   1.904       .  S
O132        C139   1.264       .  A
O133        V136   1.899       .  S
O133        C138   1.262       .  A
O134        V136   1.901       .  S
O134        C137   1.263       .  A
V135        V136   2.090       .  T
C137        C962   1.441       .  S
C138        C990   1.437       .  S
C139       C1032   1.434       .  S
C140        C974   1.433       .  S
O141        V149   1.906       .  S
O141        C151   1.264       .  A
O142        V149   1.904       .  S
O142        C152   1.264       .  A
O143        V149   1.895       .  S
O143        C153   1.261       .  A
O144        V149   1.896       .  S
O144        C154   1.261       .  A
O145        V150   1.906       .  S
O145        C154   1.264       .  A
O146        V150   1.906       .  S
O146        C153   1.264       .  A
O147        V150   1.899       .  S
O147        C152   1.262       .  A
O148        V150   1.901       .  S
O148        C151   1.263       .  A
V149        V150   2.090       .  T
C151        C920   1.440       .  S
C152       C1018   1.436       .  S
C153        C948   1.435       .  S
C154        C934   1.436       .  S
O155        V163   1.906       .  S
O155        C165   1.264       .  A
O156        V163   1.904       .  S
O156        C166   1.264       .  A
O157        V163   1.896       .  S
O157        C167   1.261       .  A
O158        V163   1.896       .  S
O158        C168   1.262       .  A
O159        V164   1.906       .  S
O159        C168   1.264       .  A
O160        V164   1.906       .  S
O160        C167   1.264       .  A
O161        V164   1.898       .  S
O161        C166   1.262       .  A
O162        V164   1.901       .  S
O162        C165   1.263       .  A
V163        V164   2.090       .  T
C165        C904   1.440       .  S
C166        C946   1.436       .  S
C167       C1060   1.436       .  S
C168        C988   1.436       .  S
O169        V177   1.908       .  S
O169        C179   1.265       .  A
O170        V177   1.905       .  S
O170        C180   1.264       .  A
O171        V177   1.897       .  S
O171        C181   1.262       .  A
O172        V177   1.895       .  S
O172        C182   1.261       .  A
O173        V178   1.905       .  S
O173        C182   1.264       .  A
O174        V178   1.905       .  S
O174        C181   1.264       .  A
O175        V178   1.900       .  S
O175        C180   1.262       .  A
O176        V178   1.902       .  S
O176        C179   1.263       .  A
V177        V178   2.090       .  T
C179        C862   1.442       .  S
C180        C890   1.438       .  S
C181        C932   1.436       .  S
C182        C876   1.435       .  S
O183        V191   1.906       .  S
O183        C193   1.264       .  A
O184        V191   1.903       .  S
O184        C194   1.264       .  A
O185        V191   1.895       .  S
O185        C195   1.261       .  A
O186        V191   1.895       .  S
O186        C196   1.261       .  A
O187        V192   1.906       .  S
O187        C196   1.264       .  A
O188        V192   1.906       .  S
O188        C195   1.264       .  A
O189        V192   1.898       .  S
O189        C194   1.262       .  A
O190        V192   1.901       .  S
O190        C193   1.263       .  A
V191        V192   2.090       .  T
C193        C836   1.440       .  S
C194        C878   1.435       .  S
C195        C848   1.435       .  S
C196       C1200   1.436       .  S
O197        V205   1.904       .  S
O197        C207   1.264       .  A
O198        V205   1.903       .  S
O198        C208   1.264       .  A
O199        V205   1.895       .  S
O199        C209   1.261       .  A
O200        V205   1.895       .  S
O200        C210   1.261       .  A
O201        V206   1.903       .  S
O201        C210   1.263       .  A
O202        V206   1.903       .  S
O202        C209   1.264       .  A
O203        V206   1.899       .  S
O203        C208   1.262       .  A
O204        V206   1.900       .  S
O204        C207   1.263       .  A
V205        V206   2.091       .  T
C207        C808   1.438       .  S
C208        C850   1.435       .  S
C209        C976   1.433       .  S
C210        C822   1.433       .  S
O211        V219   1.906       .  S
O211        C221   1.264       .  A
O212        V219   1.903       .  S
O212        C222   1.264       .  A
O213        V219   1.897       .  S
O213        C223   1.262       .  A
O214        V219   1.896       .  S
O214        C224   1.262       .  A
O215        V220   1.907       .  S
O215        C224   1.265       .  A
O216        V220   1.907       .  S
O216        C223   1.265       .  A
O217        V220   1.897       .  S
O217        C222   1.262       .  A
O218        V220   1.901       .  S
O218        C221   1.263       .  A
V219        V220   2.090       .  T
C221        C792   1.440       .  S
C222        C820   1.434       .  S
C223        C892   1.438       .  S
C224       C1312   1.437       .  S
O225        V233   1.908       .  S
O225        C235   1.265       .  A
O226        V233   1.906       .  S
O226        C236   1.264       .  A
O227        V233   1.896       .  S
O227        C237   1.262       .  A
O228        V233   1.896       .  S
O228        C238   1.261       .  A
O229        V234   1.905       .  S
O229        C238   1.264       .  A
O230        V234   1.906       .  S
O230        C237   1.264       .  A
O231        V234   1.899       .  S
O231        C236   1.262       .  A
O232        V234   1.902       .  S
O232        C235   1.263       .  A
V233        V234   2.090       .  T
C235       C1144   1.442       .  S
C236        C778   1.437       .  S
C237        C750   1.436       .  S
C238        C766   1.435       .  S
O239        V247   1.906       .  S
O239        C249   1.264       .  A
O240        V247   1.904       .  S
O240        C250   1.264       .  A
O241        V247   1.895       .  S
O241        C251   1.261       .  A
O242        V247   1.896       .  S
O242        C252   1.262       .  A
O243        V248   1.908       .  S
O243        C252   1.265       .  A
O244        V248   1.906       .  S
O244        C251   1.264       .  A
O245        V248   1.898       .  S
O245        C250   1.262       .  A
O246        V248   1.901       .  S
O246        C249   1.263       .  A
V247        V248   2.090       .  T
C249        C834   1.440       .  S
C250        C764   1.436       .  S
C251        C736   1.436       .  S
C252        C722   1.438       .  S
O253        V261   1.907       .  S
O253        C263   1.265       .  A
O254        V261   1.905       .  S
O254        C264   1.264       .  A
O255        V261   1.896       .  S
O255        C265   1.261       .  A
O256        V261   1.895       .  S
O256        C266   1.261       .  A
O257        V262   1.906       .  S
O257        C266   1.264       .  A
O258        V262   1.907       .  S
O258        C265   1.265       .  A
O259        V262   1.898       .  S
O259        C264   1.262       .  A
O260        V262   1.901       .  S
O260        C263   1.263       .  A
V261        V262   2.090       .  T
C263       C1074   1.441       .  S
C264        C738   1.437       .  S
C265        C694   1.437       .  S
C266        C708   1.435       .  S
O267        V275   1.906       .  S
O267        C277   1.264       .  A
O268        V275   1.904       .  S
O268        C278   1.264       .  A
O269        V275   1.895       .  S
O269        C279   1.261       .  A
O270        V275   1.895       .  S
O270        C280   1.261       .  A
O271        V276   1.907       .  S
O271        C280   1.265       .  A
O272        V276   1.907       .  S
O272        C279   1.265       .  A
O273        V276   1.898       .  S
O273        C278   1.262       .  A
O274        V276   1.901       .  S
O274        C277   1.263       .  A
V275        V276   2.090       .  T
C277        C794   1.440       .  S
C278        C710   1.436       .  S
C279        C780   1.437       .  S
C280        C680   1.436       .  S
O281        V289   1.906       .  S
O281        C291   1.264       .  A
O282        V289   1.904       .  S
O282        C292   1.264       .  A
O283        V289   1.896       .  S
O283        C293   1.262       .  A
O284        V289   1.896       .  S
O284        C294   1.262       .  A
O285        V290   1.906       .  S
O285        C294   1.264       .  A
O286        V290   1.906       .  S
O286        C293   1.264       .  A
O287        V290   1.899       .  S
O287        C292   1.262       .  A
O288        V290   1.902       .  S
O288        C291   1.263       .  A
V289        V290   2.090       .  T
C291       C1214   1.441       .  S
C292        C666   1.437       .  S
C293        C652   1.436       .  S
C294        C696   1.437       .  S
O295        V303   1.906       .  S
O295        C305   1.264       .  A
O296        V303   1.904       .  S
O296        C306   1.264       .  A
O297        V303   1.895       .  S
O297        C307   1.261       .  A
O298        V303   1.895       .  S
O298        C308   1.261       .  A
O299        V304   1.905       .  S
O299        C308   1.264       .  A
O300        V304   1.906       .  S
O300        C307   1.264       .  A
O301        V304   1.899       .  S
O301        C306   1.262       .  A
O302        V304   1.901       .  S
O302        C305   1.263       .  A
V303        V304   2.090       .  T
C305       C1004   1.439       .  S
C306        C654   1.436       .  S
C307        C624   1.435       .  S
C308        C640   1.435       .  S
O309        V317   1.906       .  S
O309        C319   1.264       .  A
O310        V317   1.904       .  S
O310        C320   1.264       .  A
O311        V317   1.895       .  S
O311        C321   1.261       .  A
O312        V317   1.897       .  S
O312        C322   1.262       .  A
O313        V318   1.905       .  S
O313        C322   1.264       .  A
O314        V318   1.905       .  S
O314        C321   1.264       .  A
O315        V318   1.899       .  S
O315        C320   1.262       .  A
O316        V318   1.901       .  S
O316        C319   1.263       .  A
V317        V318   2.090       .  T
C319       C1256   1.440       .  S
C320        C638   1.436       .  S
C321        C610   1.435       .  S
C322        C752   1.436       .  S
O323        V331   1.906       .  S
O323        C333   1.264       .  A
O324        V331   1.903       .  S
O324        C334   1.264       .  A
O325        V331   1.896       .  S
O325        C335   1.262       .  A
O326        V331   1.896       .  S
O326        C336   1.262       .  A
O327        V332   1.906       .  S
O327        C336   1.264       .  A
O328        V332   1.906       .  S
O328        C335   1.264       .  A
O329        V332   1.899       .  S
O329        C334   1.262       .  A
O330        V332   1.902       .  S
O330        C333   1.263       .  A
V331        V332   2.090       .  T
C333        C906   1.440       .  S
C334        C612   1.436       .  S
C335        C598   1.437       .  S
C336        C668   1.436       .  S
O337        V345   1.905       .  S
O337        C347   1.264       .  A
O338        V345   1.904       .  S
O338        C348   1.264       .  A
O339        V345   1.895       .  S
O339        C349   1.261       .  A
O340        V345   1.895       .  S
O340        C350   1.261       .  A
O341        V346   1.906       .  S
O341        C350   1.264       .  A
O342        V346   1.904       .  S
O342        C349   1.264       .  A
O343        V346   1.900       .  S
O343        C348   1.262       .  A
O344        V346   1.903       .  S
O344        C347   1.263       .  A
V345        V346   2.090       .  T
C347        C960   1.441       .  S
C348        C582   1.437       .  S
C349        C570   1.434       .  S
C350        C554   1.435       .  S
O351        V359   1.906       .  S
O351        C361   1.264       .  A
O352        V359   1.903       .  S
O352        C362   1.264       .  A
O353        V359   1.896       .  S
O353        C363   1.261       .  A
O354        V359   1.895       .  S
O354        C364   1.261       .  A
O355        V360   1.908       .  S
O355        C364   1.265       .  A
O356        V360   1.909       .  S
O356        C363   1.265       .  A
O357        V360   1.898       .  S
O357        C362   1.262       .  A
O358        V360   1.901       .  S
O358        C361   1.263       .  A
V359        V360   2.090       .  T
C361       C1186   1.440       .  S
C362        C568   1.435       .  S
C363        C724   1.438       .  S
C364        C540   1.438       .  S
O365        V373   1.905       .  S
O365        C375   1.264       .  A
O366        V373   1.902       .  S
O366        C376   1.264       .  A
O367        V373   1.895       .  S
O367        C377   1.261       .  A
O368        V373   1.895       .  S
O368        C378   1.261       .  A
O369        V374   1.908       .  S
O369        C378   1.265       .  A
O370        V374   1.907       .  S
O370        C377   1.265       .  A
O371        V374   1.897       .  S
O371        C376   1.261       .  A
O372        V374   1.900       .  S
O372        C375   1.262       .  A
V373        V374   2.090       .  T
C375       C1296   1.438       .  S
C376        C526   1.433       .  S
C377        C682   1.436       .  S
C378        C584   1.437       .  S
O379        V387   1.905       .  S
O379        C389   1.264       .  A
O380        V387   1.905       .  S
O380        C390   1.264       .  A
O381        V387   1.894       .  S
O381        C391   1.261       .  A
O382        V387   1.896       .  S
O382        C392   1.261       .  A
O383        V388   1.905       .  S
O383        C392   1.264       .  A
O384        V388   1.904       .  S
O384        C391   1.264       .  A
O385        V388   1.901       .  S
O385        C390   1.263       .  A
O386        V388   1.902       .  S
O386        C389   1.263       .  A
V387        V388   2.090       .  T
C389        C918   1.440       .  S
C390        C542   1.438       .  S
C391        C528   1.433       .  S
C392        C512   1.436       .  S
O393        V401   1.903       .  S
O393        C403   1.264       .  A
O394        V401   1.901       .  S
O394        C404   1.263       .  A
O395        V401   1.894       .  S
O395        C405   1.261       .  A
O396        V401   1.894       .  S
O396        C406   1.261       .  A
O397        V402   1.906       .  S
O397        C406   1.264       .  A
O398        V402   1.906       .  S
O398        C405   1.264       .  A
O399        V402   1.899       .  S
O399        C404   1.262       .  A
O400        V402   1.900       .  S
O400        C403   1.263       .  A
V401        V402   2.091       .  T
C403        C806   1.437       .  S
C404        C500   1.434       .  S
C405        C556   1.435       .  S
C406        C484   1.434       .  S
O407        V415   1.906       .  S
O407        C417   1.264       .  A
O408        V415   1.904       .  S
O408        C418   1.264       .  A
O409        V415   1.896       .  S
O409        C419   1.262       .  A
O410        V415   1.896       .  S
O410        C420   1.262       .  A
O411        V416   1.907       .  S
O411        C420   1.265       .  A
O412        V416   1.907       .  S
O412        C419   1.264       .  A
O413        V416   1.897       .  S
O413        C418   1.262       .  A
O414        V416   1.900       .  S
O414        C417   1.263       .  A
V415        V416   2.090       .  T
C417       C1044   1.440       .  S
C418        C486   1.435       .  S
C419        C470   1.437       .  S
C420        C596   1.437       .  S
O421        V429   1.906       .  S
O421        C431   1.264       .  A
O422        V429   1.904       .  S
O422        C432   1.264       .  A
O423        V429   1.894       .  S
O423        C433   1.261       .  A
O424        V429   1.894       .  S
O424        C434   1.261       .  A
O425        V430   1.906       .  S
O425        C434   1.264       .  A
O426        V430   1.905       .  S
O426        C433   1.264       .  A
O427        V430   1.900       .  S
O427        C432   1.262       .  A
O428        V430   1.902       .  S
O428        C431   1.263       .  A
V429        V430   2.090       .  T
C431       C1100   1.441       .  S
C432        C456   1.437       .  S
C433        C498   1.434       .  S
C434        C626   1.435       .  S
O435        V443   1.907       .  S
O435        C445   1.264       .  A
O436        V443   1.904       .  S
O436        C446   1.264       .  A
O437        V443   1.895       .  S
O437        C447   1.261       .  A
O438        V443   1.895       .  S
O438        C448   1.261       .  A
O439        V444   1.906       .  S
O439        C448   1.264       .  A
O440        V444   1.907       .  S
O440        C447   1.264       .  A
O441        V444   1.900       .  S
O441        C446   1.262       .  A
O442        V444   1.903       .  S
O442        C445   1.263       .  A
V443        V444   2.090       .  T
C445        C864   1.442       .  S
C446        C472   1.437       .  S
C447        C514   1.436       .  S
C448        C458   1.436       .  S
C449        C457   1.441       .  S
C449        C450   1.402       .  A
C449        C454   1.402       .  A
C450        C451   1.400       .  A
C450        H459   1.084       .  S
C451        C452   1.402       .  A
C451        H460   1.083   1_655  S
C452        C455   1.442   1_655  S
C452        C453   1.401       .  A
C453        C454   1.400       .  A
C453        H461   1.084       .  S
C454        H462   1.083       .  S
C455        C456   1.207       .  T
C457        C458   1.207       .  T
C463        C471   1.442       .  S
C463        C464   1.401       .  A
C463        C468   1.402       .  A
C464        C465   1.399       .  A
C464        H473   1.084       .  S
C465        C466   1.402       .  A
C465        H474   1.083       .  S
C466        C469   1.442       .  S
C466        C467   1.402       .  A
C467        C468   1.401       .  A
C467        H475   1.083       .  S
C468        H476   1.083       .  S
C469        C470   1.207       .  T
C471        C472   1.207       .  T
C477        C485   1.440   1_455  S
C477        C478   1.401   1_455  A
C477        C482   1.401       .  A
C478        C479   1.399   1_655  A
C478        H487   1.083       .  S
C479        C480   1.401       .  A
C479        H488   1.084       .  S
C480        C483   1.440       .  S
C480        C481   1.401       .  A
C481        C482   1.399       .  A
C481        H489   1.083       .  S
C482        H490   1.083       .  S
C483        C484   1.206       .  T
C485        C486   1.206       .  T
C491        C499   1.439       .  S
C491        C492   1.400       .  A
C491        C496   1.402       .  A
C492        C493   1.397       .  A
C492        H501   1.084       .  S
C493        C494   1.401       .  A
C493        H502   1.083       .  S
C494        C497   1.439       .  S
C494        C495   1.402       .  A
C495        C496   1.400       .  A
C495        H503   1.084       .  S
C496        H504   1.083       .  S
C497        C498   1.205       .  T
C499        C500   1.205       .  T
C505        C513   1.441       .  S
C505        C506   1.402       .  A
C505        C510   1.402       .  A
C506        C507   1.400       .  A
C506        H515   1.084       .  S
C507        C508   1.402       .  A
C507        H516   1.083       .  S
C508        C511   1.441       .  S
C508        C509   1.401       .  A
C509        C510   1.399       .  A
C509        H517   1.084       .  S
C510        H518   1.083       .  S
C511        C512   1.206       .  T
C513        C514   1.207       .  T
C519        C527   1.438       .  S
C519        C520   1.401       .  A
C519        C524   1.401       .  A
C520        C521   1.400       .  A
C520        H529   1.084       .  S
C521        C522   1.402       .  A
C521        H530   1.083       .  S
C522        C525   1.438       .  S
C522        C523   1.400       .  A
C523        C524   1.397       .  A
C523        H531   1.084       .  S
C524        H532   1.083       .  S
C525        C526   1.205       .  T
C527        C528   1.205       .  T
C533        C541   1.443       .  S
C533        C534   1.402       .  A
C533        C538   1.402       .  A
C534        C535   1.401       .  A
C534        H543   1.083       .  S
C535        C536   1.402       .  A
C535        H544   1.084       .  S
C536        C539   1.443       .  S
C536        C537   1.402       .  A
C537        C538   1.400       .  A
C537        H545   1.083       .  S
C538        H546   1.084       .  S
C539        C540   1.208       .  T
C541        C542   1.208       .  T
C547        C555   1.441       .  S
C547        C548   1.402       .  A
C547        C552   1.401       .  A
C548        C549   1.400       .  A
C548        H557   1.083       .  S
C549        C550   1.401       .  A
C549        H558   1.084       .  S
C550        C553   1.441       .  S
C550        C551   1.402       .  A
C551        C552   1.399       .  A
C551        H559   1.083       .  S
C552        H560   1.084       .  S
C553        C554   1.206       .  T
C555        C556   1.206       .  T
C561        C569   1.440       .  S
C561        C562   1.401       .  A
C561        C566   1.401       .  A
C562        C563   1.399       .  A
C562        H571   1.084       .  S
C563        C564   1.402       .  A
C563        H572   1.083       .  S
C564        C567   1.440       .  S
C564        C565   1.401       .  A
C565        C566   1.399       .  A
C565        H573   1.084       .  S
C566        H574   1.083       .  S
C567        C568   1.206       .  T
C569        C570   1.206       .  T
C575        C583   1.442       .  S
C575        C576   1.402       .  A
C575        C580   1.402       .  A
C576        C577   1.400       .  A
C576        H585   1.083       .  S
C577        C578   1.402       .  A
C577        H586   1.083       .  S
C578        C581   1.442       .  S
C578        C579   1.402       .  A
C579        C580   1.399       .  A
C579        H587   1.083       .  S
C580        H588   1.083       .  S
C581        C582   1.207       .  T
C583        C584   1.207       .  T
C589        C597   1.442       .  S
C589        C590   1.402       .  A
C589        C594   1.402   1_455  A
C590        C591   1.400   1_456  A
C590        H599   1.083       .  S
C591        C592   1.402   1_554  A
C591        H600   1.083       .  S
C592        C595   1.443   1_556  S
C592        C593   1.402       .  A
C593        C594   1.400       .  A
C593        H601   1.083       .  S
C594        H602   1.083   1_655  S
C595        C596   1.208       .  T
C597        C598   1.207   1_565  T
C603        C611   1.441   1_655  S
C603        C604   1.401       .  A
C603        C608   1.402       .  A
C604        C605   1.399       .  A
C604        H613   1.084       .  S
C605        C606   1.401       .  A
C605        H614   1.083       .  S
C606        C609   1.441       .  S
C606        C607   1.402       .  A
C607        C608   1.400       .  A
C607        H615   1.084       .  S
C608        H616   1.083   1_655  S
C609        C610   1.206       .  T
C611        C612   1.207       .  T
C617        C625   1.440   1_556  S
C617        C618   1.401       .  A
C617        C622   1.402   1_456  A
C618        C619   1.399   1_455  A
C618        H627   1.083       .  S
C619        C620   1.402       .  A
C619        H628   1.083       .  S
C620        C623   1.440       .  S
C620        C621   1.401       .  A
C621        C622   1.400   1_556  A
C621        H629   1.083   1_556  S
C622        H630   1.083       .  S
C623        C624   1.206       .  T
C625        C626   1.206       .  T
C631        C639   1.441       .  S
C631        C632   1.401       .  A
C631        C636   1.402       .  A
C632        C633   1.400       .  A
C632        H641   1.084       .  S
C633        C634   1.402       .  A
C633        H642   1.083       .  S
C634        C637   1.441       .  S
C634        C635   1.401       .  A
C635        C636   1.399       .  A
C635        H643   1.084       .  S
C636        H644   1.083       .  S
C637        C638   1.207       .  T
C639        C640   1.206       .  T
C645        C653   1.441       .  S
C645        C646   1.401   1_655  A
C645        C650   1.402       .  A
C646        C647   1.398       .  A
C646        H655   1.084       .  S
C647        C648   1.402       .  A
C647        H656   1.083       .  S
C648        C651   1.441       .  S
C648        C649   1.402       .  A
C649        C650   1.401   1_455  A
C649        H657   1.084       .  S
C650        H658   1.083       .  S
C651        C652   1.207       .  T
C653        C654   1.207       .  T
C659        C667   1.441       .  S
C659        C660   1.402       .  A
C659        C664   1.402       .  A
C660        C661   1.399       .  A
C660        H669   1.084       .  S
C661        C662   1.401       .  A
C661        H670   1.083       .  S
C662        C665   1.441       .  S
C662        C663   1.402       .  A
C663        C664   1.400       .  A
C663        H671   1.083       .  S
C664        H672   1.083       .  S
C665        C666   1.207       .  T
C667        C668   1.207       .  T
C673        C681   1.442       .  S
C673        C674   1.402       .  A
C673        C678   1.401       .  A
C674        C675   1.400       .  A
C674        H683   1.083       .  S
C675        C676   1.402       .  A
C675        H684   1.083       .  S
C676        C679   1.442       .  S
C676        C677   1.402       .  A
C677        C678   1.399       .  A
C677        H685   1.083   1_565  S
C678        H686   1.084       .  S
C679        C680   1.207   1_565  T
C681        C682   1.207       .  T
C687        C695   1.443       .  S
C687        C688   1.402       .  A
C687        C692   1.401       .  A
C688        C689   1.400       .  A
C688        H697   1.084       .  S
C689        C690   1.402       .  A
C689        H698   1.083       .  S
C690        C693   1.443       .  S
C690        C691   1.402       .  A
C691        C692   1.400       .  A
C691        H699   1.084       .  S
C692        H700   1.083       .  S
C693        C694   1.208       .  T
C695        C696   1.207       .  T
C701        C709   1.440       .  S
C701        C702   1.401       .  A
C701        C706   1.402       .  A
C702        C703   1.398       .  A
C702        H711   1.083       .  S
C703        C704   1.401       .  A
C703        H712   1.084       .  S
C704        C707   1.440       .  S
C704        C705   1.402       .  A
C705        C706   1.400       .  A
C705        H713   1.083       .  S
C706        H714   1.084       .  S
C707        C708   1.206       .  T
C709        C710   1.206       .  T
C715        C723   1.444       .  S
C715        C716   1.401       .  A
C715        C720   1.403       .  A
C716        C717   1.400       .  A
C716        H725   1.083       .  S
C717        C718   1.403       .  A
C717        H726   1.083       .  S
C718        C721   1.443       .  S
C718        C719   1.401       .  A
C719        C720   1.401       .  A
C719        H727   1.083       .  S
C720        H728   1.083       .  S
C721        C722   1.208       .  T
C723        C724   1.208       .  T
C729        C737   1.442       .  S
C729        C730   1.402       .  A
C729        C734   1.401       .  A
C730        C731   1.401       .  A
C730        H739   1.084       .  S
C731        C732   1.402       .  A
C731        H740   1.083       .  S
C732        C735   1.442       .  S
C732        C733   1.402       .  A
C733        C734   1.399       .  A
C733        H741   1.084       .  S
C734        H742   1.083       .  S
C735        C736   1.207       .  T
C737        C738   1.207       .  T
C743        C751   1.442       .  S
C743        C744   1.403       .  A
C743        C748   1.401       .  A
C744        C745   1.400       .  A
C744        H753   1.083       .  S
C745        C746   1.401       .  A
C745        H754   1.084       .  S
C746        C749   1.442       .  S
C746        C747   1.402       .  A
C747        C748   1.399       .  A
C747        H755   1.083       .  S
C748        H756   1.084       .  S
C749        C750   1.207       .  T
C751        C752   1.207       .  T
C757        C765   1.441       .  S
C757        C758   1.402       .  A
C757        C762   1.401       .  A
C758        C759   1.398       .  A
C758        H767   1.083       .  S
C759        C760   1.400       .  A
C759        H768   1.084       .  S
C760        C763   1.441       .  S
C760        C761   1.402       .  A
C761        C762   1.400       .  A
C761        H769   1.083       .  S
C762        H770   1.084       .  S
C763        C764   1.206       .  T
C765        C766   1.206       .  T
C771        C779   1.442       .  S
C771        C772   1.402       .  A
C771        C776   1.402       .  A
C772        C773   1.400       .  A
C772        H781   1.084       .  S
C773        C774   1.402       .  A
C773        H782   1.083       .  S
C774        C777   1.442       .  S
C774        C775   1.402       .  A
C775        C776   1.400       .  A
C775        H783   1.083       .  S
C776        H784   1.083       .  S
C777        C778   1.207       .  T
C779        C780   1.207       .  T
C785        C793   1.445       .  S
C785        C786   1.402       .  A
C785        C790   1.402       .  A
C786        C787   1.401       .  A
C786        H795   1.085       .  S
C787        C788   1.403       .  A
C787        H796   1.082       .  S
C788        C791   1.445       .  S
C788        C789   1.402       .  A
C789        C790   1.401       .  A
C789        H797   1.084       .  S
C790        H798   1.082       .  S
C791        C792   1.209       .  T
C793        C794   1.209       .  T
C799        C807   1.442   1_565  S
C799        C800   1.401       .  A
C799        C804   1.402       .  A
C800        C801   1.400       .  A
C800        H809   1.084   1_565  S
C801        C802   1.402       .  A
C801        H810   1.083       .  S
C802        C805   1.442       .  S
C802        C803   1.401       .  A
C803        C804   1.400       .  A
C803        H811   1.084       .  S
C804        H812   1.083       .  S
C805        C806   1.207       .  T
C807        C808   1.208       .  T
C813        C821   1.439       .  S
C813        C814   1.401       .  A
C813        C818   1.401       .  A
C814        C815   1.398       .  A
C814        H823   1.083       .  S
C815        C816   1.400       .  A
C815        H824   1.084       .  S
C816        C819   1.439   1_455  S
C816        C817   1.402       .  A
C817        C818   1.399       .  A
C817        H825   1.083   1_455  S
C818        H826   1.084       .  S
C819        C820   1.205       .  T
C821        C822   1.205       .  T
C827        C835   1.445       .  S
C827        C828   1.402       .  A
C827        C832   1.403       .  A
C828        C829   1.401       .  A
C828        H837   1.084       .  S
C829        C830   1.403       .  A
C829        H838   1.082       .  S
C830        C833   1.445       .  S
C830        C831   1.402       .  A
C831        C832   1.401       .  A
C831        H839   1.084       .  S
C832        H840   1.082       .  S
C833        C834   1.209       .  T
C835        C836   1.209       .  T
C841        C849   1.440       .  S
C841        C842   1.401       .  A
C841        C846   1.402       .  A
C842        C843   1.399       .  A
C842        H851   1.083       .  S
C843        C844   1.401       .  A
C843        H852   1.084       .  S
C844        C847   1.441       .  S
C844        C845   1.402       .  A
C845        C846   1.400       .  A
C845        H853   1.083       .  S
C846        H854   1.084       .  S
C847        C848   1.206       .  T
C849        C850   1.206       .  T
C855        C863   1.447       .  S
C855        C856   1.403       .  A
C855        C860   1.402       .  A
C856        C857   1.402       .  A
C856        H865   1.084       .  S
C857        C858   1.402       .  A
C857        H866   1.083       .  S
C858        C861   1.447       .  S
C858        C859   1.403       .  A
C859        C860   1.402       .  A
C859        H867   1.084       .  S
C860        H868   1.083       .  S
C861        C862   1.210       .  T
C863        C864   1.210       .  T
C869        C877   1.440   1_655  S
C869        C870   1.401       .  A
C869        C874   1.402       .  A
C870        C871   1.398       .  A
C870        H879   1.084       .  S
C871        C872   1.401       .  A
C871        H880   1.083       .  S
C872        C875   1.440       .  S
C872        C873   1.401       .  A
C873        C874   1.400       .  A
C873        H881   1.084       .  S
C874        H882   1.083   1_655  S
C875        C876   1.206       .  T
C877        C878   1.206       .  T
C883        C891   1.443       .  S
C883        C884   1.402       .  A
C883        C888   1.402       .  A
C884        C885   1.400       .  A
C884        H893   1.083       .  S
C885        C886   1.402       .  A
C885        H894   1.084       .  S
C886        C889   1.443       .  S
C886        C887   1.402       .  A
C887        C888   1.401       .  A
C887        H895   1.083       .  S
C888        H896   1.084       .  S
C889        C890   1.208       .  T
C891        C892   1.208       .  T
C897        C905   1.445       .  S
C897        C898   1.402       .  A
C897        C902   1.403       .  A
C898        C899   1.401       .  A
C898        H907   1.084       .  S
C899        C900   1.402       .  A
C899        H908   1.082       .  S
C900        C903   1.445   1_556  S
C900        C901   1.402       .  A
C901        C902   1.401       .  A
C901        H909   1.084       .  S
C902        H910   1.082       .  S
C903        C904   1.209       .  T
C905        C906   1.209       .  T
C911        C919   1.445   1_565  S
C911        C912   1.402       .  A
C911        C916   1.402       .  A
C912        C913   1.400       .  A
C912        H921   1.083       .  S
C913        C914   1.402       .  A
C913        H922   1.084       .  S
C914        C917   1.445       .  S
C914        C915   1.403       .  A
C915        C916   1.402       .  A
C915        H923   1.083       .  S
C916        H924   1.084   1_565  S
C917        C918   1.209       .  T
C919        C920   1.209       .  T
C925        C933   1.442       .  S
C925        C926   1.403       .  A
C925        C930   1.401       .  A
C926        C927   1.400       .  A
C926        H935   1.083       .  S
C927        C928   1.401       .  A
C927        H936   1.083       .  S
C928        C931   1.442       .  S
C928        C929   1.403       .  A
C929        C930   1.400       .  A
C929        H937   1.083       .  S
C930        H938   1.083       .  S
C931        C932   1.207       .  T
C933        C934   1.207       .  T
C939        C947   1.440       .  S
C939        C940   1.402       .  A
C939        C944   1.401       .  A
C940        C941   1.400       .  A
C940        H949   1.083       .  S
C941        C942   1.401       .  A
C941        H950   1.083       .  S
C942        C945   1.441       .  S
C942        C943   1.401       .  A
C943        C944   1.399       .  A
C943        H951   1.083       .  S
C944        H952   1.084       .  S
C945        C946   1.206       .  T
C947        C948   1.206       .  T
C953        C961   1.445       .  S
C953        C954   1.402       .  A
C953        C958   1.402       .  A
C954        C955   1.401       .  A
C954        H963   1.083       .  S
C955        C956   1.402       .  A
C955        H964   1.084       .  S
C956        C959   1.446       .  S
C956        C957   1.403       .  A
C957        C958   1.402       .  A
C957        H965   1.083       .  S
C958        H966   1.084       .  S
C959        C960   1.209       .  T
C961        C962   1.209       .  T
C967        C975   1.439       .  S
C967        C968   1.402       .  A
C967        C972   1.401       .  A
C968        C969   1.398       .  A
C968        H977   1.084       .  S
C969        C970   1.401       .  A
C969        H978   1.083       .  S
C970        C973   1.439       .  S
C970        C971   1.402       .  A
C971        C972   1.399       .  A
C971        H979   1.083       .  S
C972        H980   1.083       .  S
C973        C974   1.205       .  T
C975        C976   1.205       .  T
C981        C989   1.442       .  S
C981        C982   1.402       .  A
C981        C986   1.401       .  A
C982        C983   1.400       .  A
C982        H991   1.083       .  S
C983        C984   1.402       .  A
C983        H992   1.083       .  S
C984        C987   1.442       .  S
C984        C985   1.402       .  A
C985        C986   1.399       .  A
C985        H993   1.083       .  S
C986        H994   1.084       .  S
C987        C988   1.207       .  T
C989        C990   1.207       .  T
C995       C1003   1.444       .  S
C995        C996   1.402       .  A
C995       C1000   1.403       .  A
C996        C997   1.401   1_556  A
C996       H1005   1.084       .  S
C997        C998   1.403   1_554  A
C997       H1006   1.082       .  S
C998       C1001   1.444   1_556  S
C998        C999   1.401       .  A
C999       C1000   1.401       .  A
C999       H1007   1.084       .  S
C1000      H1008   1.082       .  S
C1001      C1002   1.208       .  T
C1003      C1004   1.209       .  T
C1009      C1017   1.441       .  S
C1009      C1010   1.401       .  A
C1009      C1014   1.402       .  A
C1010      C1011   1.399       .  A
C1010      H1019   1.084       .  S
C1011      C1012   1.401       .  A
C1011      H1020   1.083       .  S
C1012      C1015   1.441       .  S
C1012      C1013   1.402       .  A
C1013      C1014   1.400       .  A
C1013      H1021   1.084       .  S
C1014      H1022   1.083       .  S
C1015      C1016   1.206       .  T
C1017      C1018   1.207       .  T
C1023      C1031   1.439       .  S
C1023      C1024   1.401       .  A
C1023      C1028   1.401       .  A
C1024      C1025   1.400       .  A
C1024      H1033   1.083       .  S
C1025      C1026   1.402       .  A
C1025      H1034   1.084       .  S
C1026      C1029   1.439       .  S
C1026      C1027   1.401       .  A
C1027      C1028   1.398       .  A
C1027      H1035   1.083       .  S
C1028      H1036   1.084       .  S
C1029      C1030   1.206       .  T
C1031      C1032   1.205       .  T
C1037      C1045   1.444       .  S
C1037      C1038   1.403       .  A
C1037      C1042   1.402       .  A
C1038      C1039   1.401       .  A
C1038      H1047   1.082       .  S
C1039      C1040   1.402       .  A
C1039      H1048   1.084       .  S
C1040      C1043   1.444   1_556  S
C1040      C1041   1.403       .  A
C1041      C1042   1.401       .  A
C1041      H1049   1.082   1_556  S
C1042      H1050   1.084       .  S
C1043      C1044   1.209       .  T
C1045      C1046   1.209       .  T
C1051      C1059   1.442   1_556  S
C1051      C1052   1.403       .  A
C1051      C1056   1.401       .  A
C1052      C1053   1.400       .  A
C1052      H1061   1.083   1_565  S
C1053      C1054   1.401       .  A
C1053      H1062   1.083       .  S
C1054      C1057   1.442       .  S
C1054      C1055   1.403       .  A
C1055      C1056   1.400       .  A
C1055      H1063   1.083       .  S
C1056      H1064   1.083       .  S
C1057      C1058   1.207       .  T
C1059      C1060   1.207   1_565  T
C1065      C1073   1.446   1_565  S
C1065      C1066   1.402       .  A
C1065      C1070   1.403       .  A
C1066      C1067   1.401       .  A
C1066      H1075   1.084       .  S
C1067      C1068   1.402       .  A
C1067      H1076   1.083       .  S
C1068      C1071   1.445       .  S
C1068      C1069   1.402       .  A
C1069      C1070   1.402       .  A
C1069      H1077   1.084       .  S
C1070      H1078   1.083       .  S
C1071      C1072   1.209       .  T
C1073      C1074   1.209       .  T
C1079      C1087   1.441       .  S
C1079      C1080   1.401       .  A
C1079      C1084   1.402       .  A
C1080      C1081   1.399       .  A
C1080      H1089   1.084       .  S
C1081      C1082   1.402       .  A
C1081      H1090   1.083       .  S
C1082      C1085   1.441       .  S
C1082      C1083   1.401       .  A
C1083      C1084   1.400       .  A
C1083      H1091   1.084       .  S
C1084      H1092   1.083       .  S
C1085      C1086   1.206       .  T
C1087      C1088   1.206       .  T
C1093      C1101   1.446       .  S
C1093      C1094   1.403       .  A
C1093      C1098   1.402       .  A
C1094      C1095   1.401       .  A
C1094      H1103   1.082       .  S
C1095      C1096   1.402       .  A
C1095      H1104   1.084       .  S
C1096      C1099   1.446   1_556  S
C1096      C1097   1.403       .  A
C1097      C1098   1.402       .  A
C1097      H1105   1.082       .  S
C1098      H1106   1.084       .  S
C1099      C1100   1.209       .  T
C1101      C1102   1.210       .  T
C1107      C1115   1.442       .  S
C1107      C1108   1.401       .  A
C1107      C1112   1.402       .  A
C1108      C1109   1.400       .  A
C1108      H1117   1.084       .  S
C1109      C1110   1.402       .  A
C1109      H1118   1.083       .  S
C1110      C1113   1.442   1_556  S
C1110      C1111   1.401   1_556  A
C1111      C1112   1.400   1_554  A
C1111      H1119   1.083       .  S
C1112      H1120   1.083       .  S
C1113      C1114   1.207       .  T
C1115      C1116   1.207       .  T
C1121      C1129   1.440       .  S
C1121      C1122   1.401       .  A
C1121      C1126   1.402       .  A
C1122      C1123   1.400       .  A
C1122      H1131   1.084       .  S
C1123      C1124   1.402       .  A
C1123      H1132   1.083       .  S
C1124      C1127   1.441       .  S
C1124      C1125   1.401       .  A
C1125      C1126   1.399       .  A
C1125      H1133   1.084       .  S
C1126      H1134   1.083       .  S
C1127      C1128   1.206       .  T
C1129      C1130   1.206       .  T
C1135      C1143   1.447       .  S
C1135      C1136   1.403       .  A
C1135      C1140   1.402       .  A
C1136      C1137   1.402       .  A
C1136      H1145   1.083       .  S
C1137      C1138   1.402       .  A
C1137      H1146   1.084       .  S
C1138      C1141   1.447       .  S
C1138      C1139   1.403       .  A
C1139      C1140   1.402       .  A
C1139      H1147   1.083       .  S
C1140      H1148   1.084       .  S
C1141      C1142   1.210       .  T
C1143      C1144   1.210       .  T
C1149      C1157   1.443       .  S
C1149      C1150   1.401       .  A
C1149      C1154   1.402       .  A
C1150      C1151   1.400       .  A
C1150      H1159   1.084       .  S
C1151      C1152   1.402       .  A
C1151      H1160   1.083       .  S
C1152      C1155   1.443       .  S
C1152      C1153   1.402       .  A
C1153      C1154   1.400       .  A
C1153      H1161   1.084       .  S
C1154      H1162   1.083       .  S
C1155      C1156   1.207       .  T
C1157      C1158   1.208       .  T
C1163      C1171   1.441       .  S
C1163      C1164   1.402       .  A
C1163      C1168   1.401       .  A
C1164      C1165   1.399       .  A
C1164      H1173   1.083       .  S
C1165      C1166   1.402       .  A
C1165      H1174   1.084       .  S
C1166      C1169   1.441       .  S
C1166      C1167   1.402       .  A
C1167      C1168   1.400       .  A
C1167      H1175   1.083       .  S
C1168      H1176   1.083       .  S
C1169      C1170   1.206       .  T
C1171      C1172   1.207       .  T
C1177      C1185   1.445       .  S
C1177      C1178   1.402       .  A
C1177      C1182   1.403       .  A
C1178      C1179   1.401       .  A
C1178      H1187   1.084       .  S
C1179      C1180   1.403       .  A
C1179      H1188   1.082       .  S
C1180      C1183   1.445       .  S
C1180      C1181   1.401       .  A
C1181      C1182   1.401       .  A
C1181      H1189   1.084       .  S
C1182      H1190   1.082       .  S
C1183      C1184   1.209       .  T
C1185      C1186   1.209       .  T
C1191      C1199   1.442       .  S
C1191      C1192   1.402       .  A
C1191      C1196   1.402       .  A
C1192      C1193   1.400   1_455  A
C1192      H1201   1.083       .  S
C1193      C1194   1.402       .  A
C1193      H1202   1.084       .  S
C1194      C1197   1.442       .  S
C1194      C1195   1.402       .  A
C1195      C1196   1.400   1_655  A
C1195      H1203   1.083       .  S
C1196      H1204   1.084       .  S
C1197      C1198   1.207       .  T
C1199      C1200   1.207       .  T
C1205      C1213   1.446       .  S
C1205      C1206   1.402       .  A
C1205      C1210   1.403       .  A
C1206      C1207   1.401       .  A
C1206      H1215   1.083       .  S
C1207      C1208   1.402       .  A
C1207      H1216   1.084       .  S
C1208      C1211   1.446       .  S
C1208      C1209   1.402       .  A
C1209      C1210   1.402       .  A
C1209      H1217   1.083       .  S
C1210      H1218   1.084       .  S
C1211      C1212   1.210       .  T
C1213      C1214   1.210       .  T
C1219      C1227   1.442       .  S
C1219      C1220   1.403       .  A
C1219      C1224   1.401       .  A
C1220      C1221   1.400       .  A
C1220      H1229   1.083       .  S
C1221      C1222   1.401       .  A
C1221      H1230   1.083       .  S
C1222      C1225   1.442       .  S
C1222      C1223   1.403       .  A
C1223      C1224   1.400       .  A
C1223      H1231   1.083       .  S
C1224      H1232   1.083       .  S
C1225      C1226   1.207       .  T
C1227      C1228   1.207       .  T
C1233      C1241   1.441   1_455  S
C1233      C1234   1.402   1_455  A
C1233      C1238   1.401       .  A
C1234      C1235   1.399   1_655  A
C1234      H1243   1.084       .  S
C1235      C1236   1.401       .  A
C1235      H1244   1.083       .  S
C1236      C1239   1.441       .  S
C1236      C1237   1.402       .  A
C1237      C1238   1.400       .  A
C1237      H1245   1.084       .  S
C1238      H1246   1.083       .  S
C1239      C1240   1.207       .  T
C1241      C1242   1.207       .  T
C1247      C1255   1.445   1_565  S
C1247      C1248   1.403       .  A
C1247      C1252   1.402       .  A
C1248      C1249   1.401       .  A
C1248      H1257   1.083       .  S
C1249      C1250   1.402       .  A
C1249      H1258   1.083       .  S
C1250      C1253   1.445       .  S
C1250      C1251   1.402       .  A
C1251      C1252   1.401       .  A
C1251      H1259   1.083       .  S
C1252      H1260   1.083       .  S
C1253      C1254   1.209       .  T
C1255      C1256   1.209       .  T
C1261      C1269   1.443       .  S
C1261      C1262   1.402       .  A
C1261      C1266   1.401       .  A
C1262      C1263   1.401       .  A
C1262      H1271   1.084       .  S
C1263      C1264   1.402       .  A
C1263      H1272   1.083       .  S
C1264      C1267   1.443       .  S
C1264      C1265   1.402       .  A
C1265      C1266   1.400       .  A
C1265      H1273   1.084       .  S
C1266      H1274   1.083       .  S
C1267      C1268   1.208       .  T
C1269      C1270   1.208       .  T
C1275      C1283   1.440       .  S
C1275      C1276   1.401       .  A
C1275      C1280   1.402       .  A
C1276      C1277   1.399       .  A
C1276      H1285   1.083       .  S
C1277      C1278   1.401       .  A
C1277      H1286   1.084       .  S
C1278      C1281   1.441       .  S
C1278      C1279   1.402       .  A
C1279      C1280   1.400       .  A
C1279      H1287   1.083       .  S
C1280      H1288   1.084       .  S
C1281      C1282   1.206       .  T
C1283      C1284   1.206       .  T
C1289      C1297   1.444       .  S
C1289      C1290   1.402       .  A
C1289      C1294   1.402       .  A
C1290      C1291   1.400       .  A
C1290      H1299   1.082       .  S
C1291      C1292   1.402       .  A
C1291      H1300   1.084       .  S
C1292      C1295   1.443       .  S
C1292      C1293   1.402       .  A
C1293      C1294   1.401       .  A
C1293      H1301   1.082       .  S
C1294      H1302   1.084       .  S
C1295      C1296   1.208       .  T
C1297      C1298   1.208       .  T
C1303      C1311   1.443       .  S
C1303      C1304   1.402       .  A
C1303      C1308   1.402       .  A
C1304      C1305   1.400   1_655  A
C1304      H1313   1.083   1_565  S
C1305      C1306   1.401       .  A
C1305      H1314   1.083       .  S
C1306      C1309   1.442       .  S
C1306      C1307   1.402       .  A
C1307      C1308   1.400   1_455  A
C1307      H1315   1.083       .  S
C1308      H1316   1.083       .  S
C1309      C1310   1.207       .  T
C1311      C1312   1.208   1_565  T
C1317      C1325   1.441       .  S
C1317      C1318   1.401       .  A
C1317      C1322   1.402       .  A
C1318      C1319   1.398       .  A
C1318      H1327   1.084       .  S
C1319      C1320   1.401       .  A
C1319      H1328   1.083       .  S
C1320      C1323   1.441       .  S
C1320      C1321   1.402       .  A
C1321      C1322   1.401       .  A
C1321      H1329   1.084       .  S
C1322      H1330   1.083       .  S
C1323      C1324   1.207       .  T
C1325      C1326   1.207       .  T
C1331      C1339   1.441   1_655  S
C1331      C1332   1.401       .  A
C1331      C1336   1.402       .  A
C1332      C1333   1.398       .  A
C1332      H1341   1.084       .  S
C1333      C1334   1.402       .  A
C1333      H1342   1.083       .  S
C1334      C1337   1.441       .  S
C1334      C1335   1.402       .  A
C1335      C1336   1.401       .  A
C1335      H1343   1.084       .  S
C1336      H1344   1.083       .  S
C1337      C1338   1.207       .  T
C1339      C1340   1.207       .  T
