geometry optimzed in LAMMPS
_audit_creation_date              2020-12-01 
_audit_creation_method            'lammps2cif' 
_symmetry_space_group_name_H-M    'P1' 
_symmetry_Int_Tables_number       1 
_symmetry_cell_setting            triclinic 
loop_ 
_symmetry_equiv_pos_as_xyz 
  x,y,z 
_cell_length_a                    30.88821766 
_cell_length_b                    28.878201203704613 
_cell_length_c                    29.940451318343236 
_cell_angle_alpha                 90.13562116977909 
_cell_angle_beta                  89.95014101642008 
_cell_angle_gamma                 89.50854893027095 
loop_ 
_atom_site_label 
_atom_site_type_symbol 
_atom_site_fract_x 
_atom_site_fract_y 
_atom_site_fract_z 
_atom_site_charge 
N1          N  0.04368230  0.04890890  0.07914779    -0.03200
N2          N  0.07436767  0.05520328  0.10834714    -0.55300
N3          N  0.44913082  0.08633192  0.04805972    -0.02800
N4          N  0.41873580  0.11676183  0.05643588    -0.57400
N5          N  0.44937123  0.05375002  0.07821576    -0.02400
N6          N  0.41902775  0.06039842  0.10791545    -0.55300
N7          N  0.04428204  0.08078363  0.04837849    -0.02100
N8          N  0.07552863  0.10997001  0.05549929    -0.57800
C9          C  0.09405758  0.09333902  0.09294207     0.99000
C10         C  0.40001898  0.09958500  0.09355743     0.98800
N11         N  0.44907222  0.05399920  0.41825306    -0.03400
N12         N  0.42004952  0.06176409  0.38748704    -0.55900
N13         N  0.04523700  0.08161527  0.44560545    -0.01500
N14         N  0.07390892  0.11308679  0.43686072    -0.57100
N15         N  0.04590889  0.04900238  0.41536709    -0.03400
N16         N  0.07577445  0.05647068  0.38545096    -0.56100
N17         N  0.44949035  0.08714709  0.44801943    -0.01100
N18         N  0.42129486  0.11934064  0.43800318    -0.57200
Mn19       Mn  0.99818405  0.08363565  0.49655253     1.18400
C20         C  0.40265555  0.10225042  0.40075990     1.01100
C21         C  0.09341508  0.09614349  0.39999059     1.01800
N22         N  0.44914498  0.45101734  0.08504371    -0.03400
N23         N  0.41816387  0.44482765  0.11398242    -0.59700
N24         N  0.04715170  0.41315425  0.05680137    -0.02200
N25         N  0.07862181  0.38361793  0.06355595    -0.60400
N26         N  0.04676335  0.44515887  0.08760441    -0.02900
N27         N  0.07775976  0.43859118  0.11645228    -0.60000
N28         N  0.44872921  0.41915384  0.05412141    -0.01800
N29         N  0.41725259  0.39015442  0.06082172    -0.60700
Mn30       Mn  0.99551714  0.99802339  0.08111908     1.10700
C31         C  0.39845772  0.40675177  0.09828967     1.02300
C32         C  0.09745875  0.40013329  0.10083622     1.02400
N33         N  0.04762072  0.44768966  0.42545845    -0.02900
N34         N  0.07793957  0.44058010  0.39593121    -0.58300
N35         N  0.45118440  0.41989149  0.45465284    -0.02200
N36         N  0.42058506  0.39012782  0.44706474    -0.55000
N37         N  0.45122492  0.45219745  0.42423871    -0.03500
N38         N  0.42048731  0.44597685  0.39504673    -0.57900
N39         N  0.04795737  0.41552524  0.45593599    -0.02500
N40         N  0.07857481  0.38522304  0.44825144    -0.55000
Mn41       Mn  0.49933989  0.50295633  0.42195837     1.20200
Mn42       Mn  0.49715555  0.41609281  0.00405912     1.10100
Cl43       Cl  0.99621245  0.99761388  0.99854565    -0.83000
C44         C  0.09705765  0.40159123  0.41083455     0.99300
C45         C  0.40152571  0.40735229  0.41009309     0.99100
C46         C  0.37338703  0.37857724  0.38237305     0.00500
C47         C  0.37173144  0.37706769  0.12685663     0.00500
C48         C  0.28707559  0.36073560  0.48224960     0.05200
C49         C  0.28882303  0.34225474  0.02879954     0.05200
C50         C  0.24878090  0.33791587  0.05124778    -0.15300
C51         C  0.20820347  0.33940161  0.02944716     0.05200
C52         C  0.20813362  0.34591466  0.48189799     0.05200
C53         C  0.24840673  0.35009094  0.45995971    -0.15300
H54         H  0.24965003  0.34751284  0.42421861     0.07200
H55         H  0.24937006  0.33258217  0.08688307     0.07200
C56         C  0.37332665  0.13026291  0.37306789     0.00500
C57         C  0.33823718  0.02831174  0.28983736     0.05200
C58         C  0.33910338  0.47834458  0.29701720     0.05200
C59         C  0.33648035  0.45495610  0.25546304    -0.15300
C60         C  0.33947915  0.47762533  0.21383320     0.05200
C61         C  0.33775263  0.02769439  0.20663954     0.05200
C62         C  0.33442839  0.05091632  0.24815417    -0.15300
H63         H  0.32893571  0.08782466  0.24801557     0.07200
H64         H  0.33177021  0.41800197  0.25538571     0.07200
C65         C  0.37185329  0.12836725  0.12194804     0.00500
C66         C  0.28647897  0.14357606  0.47352554     0.05200
C67         C  0.28382380  0.14607231  0.02307034     0.05200
C68         C  0.24443712  0.15425455  0.04543618    -0.15300
C69         C  0.20402591  0.15501045  0.02324448     0.05200
C70         C  0.20675380  0.14554175  0.47383306     0.05200
C71         C  0.24662773  0.14526074  0.45109844    -0.15300
H72         H  0.24679660  0.13984608  0.41541321     0.07200
H73         H  0.24521433  0.15680030  0.08127857     0.07200
C74         C  0.12388485  0.37192517  0.38213326     0.00500
C75         C  0.02152656  0.29290275  0.34839498     0.05200
C76         C  0.47521825  0.29806923  0.34808013     0.05200
C77         C  0.45398571  0.25597127  0.33954489    -0.15300
C78         C  0.47442521  0.21246668  0.34281787     0.05200
C79         C  0.02109872  0.20742512  0.34187822     0.05200
C80         C  0.04210120  0.25043930  0.33899977    -0.15300
H81         H  0.07589370  0.25101626  0.33001400     0.07200
H82         H  0.42019797  0.25712561  0.33065673     0.07200
C83         C  0.12222589  0.12468535  0.37282254     0.00500
C84         C  0.15778171  0.02291542  0.28887243     0.05200
C85         C  0.15727401  0.47255395  0.29765755     0.05200
C86         C  0.16041377  0.44923234  0.25623330    -0.15300
C87         C  0.15715116  0.47180389  0.21470339     0.05200
C88         C  0.15666195  0.02238317  0.20588863     0.05200
C89         C  0.16077488  0.04558609  0.24723672    -0.15300
H90         H  0.16597572  0.08246294  0.24685964     0.07200
H91         H  0.16551824  0.41221891  0.25628918     0.07200
C92         C  0.12097258  0.12268132  0.12154446     0.00500
C93         C  0.12433949  0.37031909  0.12933103     0.00500
C94         C  0.01986734  0.29005450  0.15628270     0.05200
C95         C  0.47478407  0.29447410  0.15359709     0.05200
C96         C  0.45407642  0.25158742  0.15860223    -0.15300
C97         C  0.47477414  0.20860108  0.15159201     0.05200
C98         C  0.01897227  0.20426442  0.15316186     0.05200
C99         C  0.04009899  0.24653720  0.16086754    -0.15300
H100        H  0.07375857  0.24544102  0.17023650     0.07200
H101        H  0.42050477  0.25169708  0.16832987     0.07200
C102        C  0.05049268  0.33149554  0.15243480    -0.13500
C103        C  0.09429508  0.32833537  0.14015422    -0.28700
H104        H  0.03638384  0.36557174  0.15766534     0.15500
H105        H  0.10815944  0.29490751  0.13166564     0.16100
C106        C  0.04846424  0.16223567  0.14673299    -0.13500
C107        C  0.09151471  0.16495965  0.13301104    -0.28700
H108        H  0.03438226  0.12838073  0.15174490     0.15500
H109        H  0.10503774  0.19833223  0.12463330     0.16100
C110        C  0.15305677  0.44183869  0.17299658    -0.13500
C111        C  0.13603871  0.39773301  0.17253900    -0.28700
H112        H  0.16133826  0.45718366  0.14116463     0.15500
H113        H  0.12546159  0.38244207  0.20367317     0.16100
C114        C  0.15120907  0.05164885  0.16429752    -0.13500
C115        C  0.13303997  0.09533349  0.16435709    -0.28700
H116        H  0.15956922  0.03626428  0.13233375     0.15500
H117        H  0.12235040  0.11045898  0.19572115     0.16100
C118        C  0.15322780  0.05266720  0.33075061    -0.13500
C119        C  0.13650281  0.09705177  0.33073101    -0.28700
H120        H  0.16018000  0.03690020  0.36280602     0.15500
H121        H  0.12711408  0.11254753  0.29922352     0.16100
C122        C  0.05052934  0.16493577  0.34547911    -0.13500
C123        C  0.09339834  0.16689184  0.35972534    -0.28700
H124        H  0.03627221  0.13132888  0.33946255     0.15500
H125        H  0.10692228  0.19997593  0.36904961     0.16100
C126        C  0.15302188  0.44307207  0.33921936    -0.13500
C127        C  0.13540975  0.39937322  0.33929170    -0.28700
H128        H  0.16173709  0.45827696  0.37106681     0.15500
H129        H  0.12436440  0.38440967  0.30812031     0.16100
C130        C  0.05134583  0.33394356  0.35651913    -0.13500
C131        C  0.09434261  0.33006193  0.37050787    -0.28700
H132        H  0.03749099  0.36825441  0.35211675     0.15500
H133        H  0.10778117  0.29618803  0.37811332     0.16100
C134        C  0.16213766  0.13477808  0.09439550    -0.13500
C135        C  0.16328747  0.15313513  0.05184555    -0.28700
H136        H  0.19192417  0.12205925  0.10907112     0.15500
H137        H  0.13336864  0.16495515  0.03681748     0.16100
C138        C  0.16148267  0.14057231  0.40176574    -0.13500
C139        C  0.16721192  0.13301236  0.44709357    -0.28700
H140        H  0.18510630  0.16132935  0.38420825     0.15500
H141        H  0.14404640  0.11349151  0.46607165     0.16100
C142        C  0.40143798  0.17003392  0.13438521    -0.13500
C143        C  0.44501786  0.16692566  0.14659212    -0.28700
H144        H  0.38759615  0.20368587  0.12673649     0.15500
H145        H  0.45951708  0.13289453  0.15086222     0.16100
C146        C  0.32268292  0.13175797  0.05073115    -0.13500
C147        C  0.33143203  0.14440080  0.09437375    -0.28700
H148        H  0.34357756  0.10685616  0.03455928     0.15500
H149        H  0.30987706  0.16871691  0.11106921     0.16100
C150        C  0.34210881  0.05697800  0.16462677    -0.13500
C151        C  0.35898961  0.10096074  0.16437181    -0.28700
H152        H  0.33444557  0.04131012  0.13270780     0.15500
H153        H  0.36913534  0.11626328  0.19570370     0.16100
C154        C  0.40154345  0.17273452  0.36002792    -0.13500
C155        C  0.44475348  0.17051611  0.34641801    -0.28700
H156        H  0.38734396  0.20599802  0.36865779     0.15500
H157        H  0.45930088  0.13667707  0.34084384     0.16100
C158        C  0.33311787  0.14480922  0.40186164    -0.13500
C159        C  0.32599591  0.13216887  0.44582521    -0.28700
H160        H  0.30969972  0.16742700  0.38567501     0.15500
H161        H  0.34842971  0.10911412  0.46210308     0.16100
C162        C  0.36007439  0.10224054  0.33104674    -0.13500
C163        C  0.34317220  0.05824934  0.33146203    -0.28700
H164        H  0.36965884  0.11721727  0.29942713     0.15500
H165        H  0.33591007  0.04305481  0.36364468     0.16100
C166        C  0.16595479  0.35789943  0.10191244    -0.13500
C167        C  0.16741543  0.34137548  0.05844762    -0.28700
H168        H  0.19590522  0.36902279  0.11720711     0.15500
H169        H  0.13751509  0.33080355  0.04293526     0.16100
C170        C  0.16744412  0.34447896  0.45289537    -0.13500
C171        C  0.16541653  0.36001715  0.40917215    -0.25700
H172        H  0.13796500  0.33301960  0.46869332     0.15500
H173        H  0.19460184  0.37204028  0.39320425     0.16100
C174        C  0.36028487  0.40388408  0.17054251    -0.13500
C175        C  0.34314447  0.44809254  0.17177780    -0.28700
H176        H  0.37116389  0.38806006  0.20139762     0.15500
H177        H  0.33445168  0.46387442  0.14020989     0.16100
C178        C  0.40144233  0.33450157  0.13701275    -0.13500
C179        C  0.44487999  0.33669902  0.14971318    -0.28700
H180        H  0.38766076  0.30142807  0.12795537     0.15500
H181        H  0.45905114  0.37041295  0.15541394     0.16100
C182        C  0.32952056  0.34659944  0.05710152    -0.13500
C183        C  0.33033200  0.36490339  0.09976571    -0.28700
H184        H  0.35970773  0.33569060  0.04194389     0.15500
H185        H  0.30005586  0.37641247  0.11461405     0.16100
C186        C  0.33377929  0.36281926  0.41065750    -0.13500
C187        C  0.32508230  0.37605060  0.45421562    -0.28700
H188        H  0.31309596  0.33768280  0.39455659     0.15500
H189        H  0.34526677  0.40160867  0.46987588     0.16100
C190        C  0.35985991  0.40528382  0.33984278    -0.13500
C191        C  0.34304421  0.44944674  0.33921908    -0.28700
H192        H  0.36990949  0.38938781  0.30865933     0.15500
H193        H  0.33541908  0.46556632  0.37101271     0.16100
C194        C  0.40309983  0.33681892  0.36970304    -0.13500
C195        C  0.44588220  0.33994393  0.35535691    -0.28700
H196        H  0.39016539  0.30314437  0.37804294     0.15500
H197        H  0.45984248  0.37387792  0.35043610     0.16100
N198        N  0.04642225  0.04757033  0.57706263    -0.03200
N199        N  0.07677377  0.05356096  0.60672573    -0.55300
N200        N  0.45003308  0.08663083  0.54975069    -0.02800
N201        N  0.42030818  0.11767042  0.55835290    -0.57400
N202        N  0.44976487  0.05390989  0.57978004    -0.02400
N203        N  0.41951573  0.06099626  0.60952625    -0.55300
N204        N  0.04692206  0.07995070  0.54674905    -0.02100
N205        N  0.07770345  0.10941193  0.55493714    -0.57800
C206        C  0.09616571  0.09216479  0.59226178     0.99000
C207        C  0.40115597  0.10057678  0.59522830     0.98800
N208        N  0.44825638  0.05429017  0.91643594    -0.03400
N209        N  0.41799871  0.06150335  0.88679991    -0.55900
N210        N  0.04572538  0.08021180  0.94847601    -0.01500
N211        N  0.07658978  0.10974892  0.94113926    -0.57100
N212        N  0.04548315  0.04802112  0.91785631    -0.03400
N213        N  0.07609861  0.05435672  0.88856718    -0.56100
N214        N  0.44829197  0.08674866  0.94687644    -0.01100
N215        N  0.41841004  0.11772976  0.93871856    -0.57200
Mn216      Mn  0.99670173  0.08376970  0.99770376     1.18400
C217        C  0.39941231  0.10089782  0.90159206     1.01100
C218        C  0.09532415  0.09288806  0.90377467     1.01800
N219        N  0.45108029  0.45203612  0.58576650    -0.03400
N220        N  0.42153358  0.44520417  0.61614728    -0.59700
N221        N  0.04850952  0.41545141  0.55593000    -0.02200
N222        N  0.07916646  0.38524953  0.56377939    -0.60400
N223        N  0.04774909  0.44751269  0.58669193    -0.02900
N224        N  0.07777564  0.44047820  0.61653121    -0.60000
N225        N  0.45098941  0.41923681  0.55566712    -0.01800
N226        N  0.42169230  0.38838713  0.56481838    -0.60700
Mn227      Mn  0.99831355  0.99691279  0.57860587     1.10700
C228        C  0.40317300  0.40573522  0.60216885     1.02300
C229        C  0.09720374  0.40162821  0.60154949     1.02400
N230        N  0.04720841  0.44549280  0.92636961    -0.02900
N231        N  0.07785254  0.43913220  0.89698903    -0.58300
N232        N  0.44831371  0.41896603  0.95418846    -0.02200
N233        N  0.41681492  0.38996261  0.94726359    -0.55000
N234        N  0.44840018  0.45123909  0.92378990    -0.03500
N235        N  0.41712843  0.44544529  0.89513587    -0.57900
N236        N  0.04761669  0.41300524  0.95657377    -0.02500
N237        N  0.07865984  0.38314338  0.94867051    -0.55000
Mn238      Mn  0.49671331  0.50212766  0.92167689     1.20200
Mn239      Mn  0.49904572  0.41660940  0.50506447     1.10100
Cl240      Cl  0.99818170  0.99729000  0.49603056    -0.83000
C241        C  0.09733473  0.40022723  0.91151556     0.99300
C242        C  0.39756279  0.40716022  0.91036474     0.99100
C243        C  0.37014071  0.37822822  0.88163083     0.00500
C244        C  0.37433426  0.37790024  0.63016430     0.00500
C245        C  0.28862504  0.34209190  0.98058260     0.05200
C246        C  0.28725999  0.36032595  0.53032104     0.05200
C247        C  0.24864241  0.34908835  0.55238066    -0.15300
C248        C  0.20830674  0.34563592  0.53032989     0.05200
C249        C  0.20813474  0.33919110  0.98108554     0.05200
C250        C  0.24846615  0.33736397  0.95875634    -0.15300
H251        H  0.24876103  0.33163347  0.92311499     0.07200
H252        H  0.24977915  0.34544022  0.58806210     0.07200
C253        C  0.37051962  0.12973725  0.87418468     0.00500
C254        C  0.33624370  0.02878082  0.78982109     0.05200
C255        C  0.33805120  0.48032044  0.79664910     0.05200
C256        C  0.33519837  0.45747961  0.75500475    -0.15300
C257        C  0.33954350  0.48022805  0.71351667     0.05200
C258        C  0.33694012  0.02826190  0.70661418     0.05200
C259        C  0.33285825  0.05140166  0.74812733    -0.15300
H260        H  0.32702272  0.08827378  0.74801829     0.07200
H261        H  0.32945264  0.42069142  0.75488544     0.07200
C262        C  0.37238515  0.12932555  0.62292084     0.00500
C263        C  0.28388847  0.14648307  0.97492840     0.05200
C264        C  0.28658141  0.14578913  0.52172225     0.05200
C265        C  0.24699830  0.15260555  0.54389655    -0.15300
C266        C  0.20686814  0.14926904  0.52195009     0.05200
C267        C  0.20420676  0.15501566  0.97491200     0.05200
C268        C  0.24458060  0.15490073  0.95281467    -0.15300
H269        H  0.24521354  0.15803727  0.91704269     0.07200
H270        H  0.24732760  0.15692416  0.57960883     0.07200
C271        C  0.12484483  0.37137790  0.88242043     0.00500
C272        C  0.02342082  0.29117694  0.84836895     0.05200
C273        C  0.47214975  0.29686960  0.84797383     0.05200
C274        C  0.45122231  0.25453785  0.84005813    -0.15300
C275        C  0.47206550  0.21114810  0.84342098     0.05200
C276        C  0.02277429  0.20548615  0.84464769     0.05200
C277        C  0.04410948  0.24826828  0.84129817    -0.15300
H278        H  0.07814242  0.24822781  0.83344435     0.07200
H279        H  0.41736712  0.25547029  0.83150326     0.07200
C280        C  0.12296310  0.12174770  0.87556608     0.00500
C281        C  0.15584608  0.02056302  0.79025094     0.05200
C282        C  0.15828837  0.47283638  0.79821361     0.05200
C283        C  0.16165400  0.44980979  0.75670459    -0.15300
C284        C  0.15830649  0.47269857  0.71528707     0.05200
C285        C  0.15575337  0.02013479  0.70726916     0.05200
C286        C  0.15907825  0.04328113  0.74868272    -0.15300
H287        H  0.16435527  0.08016243  0.74853789     0.07200
H288        H  0.16671075  0.41280554  0.75656639     0.07200
C289        C  0.12383615  0.12059111  0.62111006     0.00500
C290        C  0.12470910  0.37239967  0.62995988     0.00500
C291        C  0.02399970  0.28932356  0.65819991     0.05200
C292        C  0.47515284  0.29398139  0.66095441     0.05200
C293        C  0.45412208  0.25111867  0.66493041    -0.15300
C294        C  0.47472430  0.20824565  0.65675697     0.05200
C295        C  0.02367173  0.20356449  0.65466959     0.05200
C296        C  0.04487771  0.24596273  0.66135060    -0.15300
H297        H  0.07898742  0.24507344  0.66895822     0.07200
H298        H  0.42037436  0.25111071  0.67405154     0.07200
C299        C  0.05333208  0.33141467  0.65416527    -0.13500
C300        C  0.09648525  0.32945302  0.64050228    -0.28700
H301        H  0.03881945  0.36511281  0.66046145     0.15500
H302        H  0.11094284  0.29657817  0.63104247     0.16100
C303        C  0.05277040  0.16141664  0.64752285    -0.13500
C304        C  0.09540503  0.16358382  0.63256527    -0.28700
H305        H  0.03868248  0.12767705  0.65321484     0.15500
H306        H  0.10921280  0.19669791  0.62371448     0.16100
C307        C  0.15370677  0.44315391  0.67360749    -0.13500
C308        C  0.13591294  0.39958741  0.67319985    -0.28700
H309        H  0.16240360  0.45824477  0.64176779     0.15500
H310        H  0.12505118  0.38442506  0.70431152     0.16100
C311        C  0.15206191  0.04926928  0.66522723    -0.13500
C312        C  0.13492183  0.09334414  0.66436058    -0.28700
H313        H  0.16072470  0.03352194  0.63353714     0.15500
H314        H  0.12414858  0.10907861  0.69541218     0.16100
C315        C  0.15206902  0.05029627  0.83201236    -0.13500
C316        C  0.13491404  0.09443863  0.83249056    -0.28700
H317        H  0.16039325  0.03483990  0.86385010     0.15500
H318        H  0.12437682  0.10993999  0.80134584     0.16100
C319        C  0.05183863  0.16295365  0.84958472    -0.13500
C320        C  0.09452367  0.16465688  0.86434568    -0.28700
H321        H  0.03762464  0.12940661  0.84309047     0.15500
H322        H  0.10839348  0.19745918  0.87411116     0.16100
C323        C  0.15370729  0.44320196  0.83983361    -0.13500
C324        C  0.13638476  0.39936536  0.83979405    -0.28700
H325        H  0.16205191  0.45836681  0.87181008     0.15500
H326        H  0.12572495  0.38443540  0.80845477     0.16100
C327        C  0.05299514  0.33256686  0.85590876    -0.13500
C328        C  0.09590870  0.32925507  0.87021670    -0.28700
H329        H  0.03893295  0.36672334  0.85111573     0.15500
H330        H  0.10967541  0.29564004  0.87815662     0.16100
C331        C  0.16525407  0.13135826  0.59378941    -0.13500
C332        C  0.16638152  0.14824127  0.55067340    -0.28700
H333        H  0.19510206  0.11880378  0.60860524     0.15500
H334        H  0.13672012  0.16004490  0.53504678     0.16100
C335        C  0.16367752  0.13317160  0.90352895    -0.13500
C336        C  0.16399763  0.15254676  0.94580599    -0.28700
H337        H  0.19358525  0.11952854  0.88974575     0.15500
H338        H  0.13392674  0.16517936  0.95999763     0.16100
C339        C  0.40180153  0.17070760  0.63648825    -0.13500
C340        C  0.44491508  0.16697865  0.65007800    -0.28700
H341        H  0.38849991  0.20462104  0.62889256     0.15500
H342        H  0.45903432  0.13278433  0.65436982     0.16100
C343        C  0.32550667  0.13330055  0.54998040    -0.13500
C344        C  0.33287421  0.14559754  0.59406760    -0.28700
H345        H  0.34699557  0.10882721  0.53412917     0.15500
H346        H  0.31067714  0.16949687  0.61037741     0.16100
C347        C  0.34170982  0.05770826  0.66471433    -0.13500
C348        C  0.35830193  0.10183061  0.66488492    -0.28700
H349        H  0.33489763  0.04199967  0.63260848     0.15500
H350        H  0.36756597  0.11717953  0.69648824     0.16100
C351        C  0.39943292  0.17177316  0.86163530    -0.13500
C352        C  0.44251323  0.16920023  0.84763606    -0.28700
H353        H  0.38570485  0.20509359  0.87077907     0.15500
H354        H  0.45686667  0.13533627  0.84174223     0.16100
C355        C  0.33056035  0.14531090  0.90283801    -0.13500
C356        C  0.32275719  0.13287348  0.94673859    -0.28700
H357        H  0.30853037  0.16928401  0.88653928     0.15500
H358        H  0.34436685  0.10862366  0.96262710     0.16100
C359        C  0.35701227  0.10256245  0.83177790    -0.13500
C360        C  0.34026143  0.05856551  0.83165450    -0.28700
H361        H  0.36673167  0.11789065  0.80035103     0.15500
H362        H  0.33289197  0.04313046  0.86369399     0.16100
C363        C  0.16618057  0.36163043  0.60258070    -0.13500
C364        C  0.16791236  0.34438664  0.55948010    -0.28700
H365        H  0.19527765  0.37525212  0.61751286     0.15500
H366        H  0.13854960  0.33153407  0.54448999     0.16100
C367        C  0.16748731  0.34124171  0.95234019    -0.13500
C368        C  0.16627389  0.35906934  0.90954862    -0.25700
H369        H  0.13767673  0.32965886  0.96734476     0.15500
H370        H  0.19616086  0.37127737  0.89491266     0.16100
C371        C  0.36114310  0.40601129  0.67223545    -0.13500
C372        C  0.34438109  0.45033660  0.67185443    -0.28700
H373        H  0.37086151  0.39087656  0.70380844     0.15500
H374        H  0.33715066  0.46570982  0.63970753     0.16100
C375        C  0.40290460  0.33522104  0.64303542    -0.13500
C376        C  0.44596358  0.33672118  0.65681357    -0.28700
H377        H  0.38891186  0.30215236  0.63437935     0.15500
H378        H  0.46059081  0.37024116  0.66229731     0.16100
C379        C  0.32566965  0.37516175  0.55835451    -0.13500
C380        C  0.33414498  0.36281048  0.60216480    -0.28700
H381        H  0.34671512  0.39947826  0.54222991     0.15500
H382        H  0.31275285  0.33889083  0.61888221     0.16100
C383        C  0.32913041  0.36553316  0.90920248    -0.13500
C384        C  0.32893547  0.34661972  0.95157815    -0.28700
H385        H  0.29861152  0.37724758  0.89514441     0.15500
H386        H  0.35931720  0.33546819  0.96601387     0.16100
C387        C  0.35813371  0.40601987  0.83881693    -0.13500
C388        C  0.34148743  0.45050289  0.83845116    -0.28700
H389        H  0.36859651  0.39050340  0.80757154     0.15500
H390        H  0.33331622  0.46615596  0.87032371     0.16100
C391        C  0.39956148  0.33593634  0.86945914    -0.13500
C392        C  0.44255009  0.33874702  0.85539315    -0.28700
H393        H  0.38605182  0.30243446  0.87740966     0.15500
H394        H  0.45658360  0.37268043  0.85068069     0.16100
N395        N  0.04687063  0.54765612  0.08757769    -0.03200
N396        N  0.07782794  0.55406903  0.11647032    -0.55300
N397        N  0.44867753  0.58559872  0.05485932    -0.02800
N398        N  0.41740424  0.61525201  0.06238826    -0.57400
N399        N  0.44915187  0.55336421  0.08530538    -0.02400
N400        N  0.41838964  0.55978216  0.11454515    -0.55300
N401        N  0.04708464  0.57951736  0.05674929    -0.02100
N402        N  0.07834831  0.60874703  0.06357589    -0.57800
C403        C  0.09728810  0.59227852  0.10088218     0.99000
C404        C  0.39874746  0.59846140  0.09965816     0.98800
N405        N  0.45111419  0.55487929  0.42337200    -0.03400
N406        N  0.42141609  0.56213148  0.39316237    -0.55900
N407        N  0.04671956  0.58349257  0.45475639    -0.01500
N408        N  0.07521911  0.61506356  0.44551187    -0.57100
N409        N  0.04750867  0.55046227  0.42493443    -0.03400
N410        N  0.07732170  0.55766574  0.39493535    -0.56100
N411        N  0.45134221  0.58786990  0.45330192    -0.01100
N412        N  0.42230855  0.61943595  0.44398131    -0.57200
Mn413      Mn  0.99915125  0.58532545  0.50532834     1.18400
C414        C  0.40340551  0.60215560  0.40696252     1.01100
C415        C  0.09481015  0.59764475  0.40883560     1.01800
N416        N  0.44917852  0.95087247  0.07899085    -0.03400
N417        N  0.41955740  0.94371381  0.10926710    -0.59700
N418        N  0.04346758  0.91294693  0.05038793    -0.02200
N419        N  0.07248097  0.88136611  0.05952763    -0.60400
N420        N  0.04381001  0.94599830  0.08019734    -0.02900
N421        N  0.07372093  0.93873424  0.11018504    -0.60000
N422        N  0.44964975  0.91790956  0.04908856    -0.01800
N423        N  0.42100807  0.88648066  0.05846436    -0.60700
Mn424      Mn  0.99862314  0.49678792  0.08997442     1.10700
C425        C  0.40181063  0.90382067  0.09543033     1.02300
C426        C  0.09174514  0.89867901  0.09623377     1.02400
N427        N  0.04634583  0.94622492  0.41520349    -0.02900
N428        N  0.07682297  0.93957823  0.38572680    -0.58300
N429        N  0.45027018  0.91814833  0.44826338    -0.02200
N430        N  0.42104111  0.88719851  0.43911685    -0.55000
N431        N  0.44973010  0.95113603  0.41850367    -0.03500
N432        N  0.41993765  0.94438665  0.38842949    -0.57900
N433        N  0.04689748  0.91394540  0.44559995    -0.02500
N434        N  0.07781830  0.88402575  0.43788642    -0.55000
Mn435      Mn  0.49737837  0.00227549  0.41648704     1.20200
Mn436      Mn  0.49713487  0.91611634  0.99808021     1.10100
Cl437      Cl  0.99864177  0.49681874  0.00701860    -0.83000
C438        C  0.09630406  0.90079681  0.40062460     0.99300
C439        C  0.40208903  0.90471308  0.40211858     0.99100
C440        C  0.37346107  0.87686870  0.37398601     0.00500
C441        C  0.37325904  0.87561175  0.12350684     0.00500
C442        C  0.28695674  0.85972855  0.47394346     0.05200
C443        C  0.28728094  0.85344182  0.02420003     0.05200
C444        C  0.24729753  0.85294804  0.04685010    -0.15300
C445        C  0.20738561  0.85045059  0.02432990     0.05200
C446        C  0.20776351  0.84604409  0.47302108     0.05200
C447        C  0.24815344  0.85025621  0.45132811    -0.15300
H448        H  0.24947456  0.84840132  0.41567289     0.07200
H449        H  0.24697839  0.86028151  0.08228562     0.07200
C450        C  0.37417610  0.63027962  0.37926025     0.00500
C451        C  0.33873642  0.52821434  0.29676496     0.05200
C452        C  0.33810489  0.97840149  0.29009431     0.05200
C453        C  0.33418767  0.95526421  0.24861037    -0.15300
C454        C  0.33768665  0.97780601  0.20687748     0.05200
C455        C  0.33901449  0.52748343  0.21379462     0.05200
C456        C  0.33512851  0.55071076  0.25511909    -0.15300
H457        H  0.32929338  0.58759880  0.25474017     0.07200
H458        H  0.32853234  0.91847368  0.24879607     0.07200
C459        C  0.37172621  0.62788992  0.12873204     0.00500
C460        C  0.28807125  0.64628885  0.48020303     0.05200
C461        C  0.28696948  0.65507839  0.03064380     0.05200
C462        C  0.24677894  0.65964560  0.05258214    -0.15300
C463        C  0.20698340  0.65248846  0.03080991     0.05200
C464        C  0.20831759  0.64923315  0.48101574     0.05200
C465        C  0.24809470  0.64914693  0.45803952    -0.15300
H466        H  0.24800781  0.64438139  0.42224997     0.07200
H467        H  0.24642181  0.66837111  0.08769755     0.07200
C468        C  0.12392933  0.87173067  0.37222104     0.00500
C469        C  0.02220046  0.79085060  0.34005527     0.05200
C470        C  0.47502112  0.79504371  0.34127002     0.05200
C471        C  0.45436883  0.75217293  0.33570405    -0.15300
C472        C  0.47526098  0.70942002  0.34301056     0.05200
C473        C  0.02215164  0.70526300  0.34290310     0.05200
C474        C  0.04302869  0.74763619  0.33538993    -0.15300
H475        H  0.07698694  0.74696294  0.32695153     0.07200
H476        H  0.42058678  0.75201970  0.32664735     0.07200
C477        C  0.12327444  0.62584783  0.38083031     0.00500
C478        C  0.15777435  0.52249921  0.29770384     0.05200
C479        C  0.15800019  0.97300411  0.28872369     0.05200
C480        C  0.16184168  0.94995424  0.24730218    -0.15300
C481        C  0.15721331  0.97255204  0.20588614     0.05200
C482        C  0.15754795  0.52171558  0.21464893     0.05200
C483        C  0.16132473  0.54493929  0.25601877    -0.15300
H484        H  0.16714072  0.58171884  0.25558658     0.07200
H485        H  0.16791570  0.91310366  0.24735357     0.07200
C486        C  0.12395253  0.62211392  0.12942905     0.00500
C487        C  0.12074228  0.87034071  0.12399707     0.00500
C488        C  0.01982742  0.78975034  0.15806256     0.05200
C489        C  0.47432308  0.79446356  0.15799790     0.05200
C490        C  0.45345757  0.75183463  0.16423954    -0.15300
C491        C  0.47422182  0.70872977  0.15825206     0.05200
C492        C  0.02040366  0.70387559  0.15824509     0.05200
C493        C  0.04090080  0.74682074  0.16405772    -0.15300
H494        H  0.07465032  0.74687865  0.17307725     0.07200
H495        H  0.41968144  0.75225704  0.17321412     0.07200
C496        C  0.04908485  0.83161765  0.15206890    -0.13500
C497        C  0.09206229  0.82864895  0.13795517    -0.28700
H498        H  0.03461537  0.86561770  0.15677851     0.15500
H499        H  0.10582348  0.79500928  0.12997698     0.16100
C500        C  0.05057089  0.66189247  0.15317234    -0.13500
C501        C  0.09398499  0.66446805  0.14020986    -0.28700
H502        H  0.03658822  0.62803231  0.15842306     0.15500
H503        H  0.10757517  0.69772168  0.13160236     0.16100
C504        C  0.15175874  0.94257139  0.16445522    -0.13500
C505        C  0.13461443  0.89872314  0.16549088    -0.28700
H506        H  0.15867556  0.95758055  0.13210289     0.15500
H507        H  0.12516189  0.88422158  0.19737264     0.16100
C508        C  0.15350136  0.55116705  0.17294845    -0.13500
C509        C  0.13581461  0.59513069  0.17255147    -0.28700
H510        H  0.16215285  0.53559068  0.14115962     0.15500
H511        H  0.12485577  0.61053880  0.20369117     0.16100
C512        C  0.15360521  0.55261775  0.33949719    -0.13500
C513        C  0.13760641  0.59735883  0.33915551    -0.28700
H514        H  0.16020770  0.53692154  0.37163874     0.15500
H515        H  0.12849245  0.61259196  0.30746457     0.16100
C516        C  0.05152542  0.66357497  0.35106535    -0.13500
C517        C  0.09385628  0.66712652  0.36645804    -0.28700
H518        H  0.03784169  0.62945270  0.34643766     0.15500
H519        H  0.10655313  0.70102979  0.37439522     0.16100
C520        C  0.15323499  0.94326912  0.33007309    -0.13500
C521        C  0.13574011  0.89950192  0.32964008    -0.28700
H522        H  0.16137025  0.95833911  0.36214190     0.15500
H523        H  0.12527008  0.88462958  0.29820690     0.16100
C524        C  0.05200678  0.83244847  0.34585264    -0.13500
C525        C  0.09499485  0.82945813  0.36033184    -0.28700
H526        H  0.03797055  0.86646673  0.34019438     0.15500
H527        H  0.10874529  0.79610001  0.36916489     0.16100
C528        C  0.16536881  0.63431676  0.10242479    -0.13500
C529        C  0.16630831  0.65063051  0.05918263    -0.28700
H530        H  0.19575879  0.62372759  0.11757499     0.15500
H531        H  0.13637630  0.66074402  0.04306424     0.16100
C532        C  0.16249763  0.64307439  0.40916040    -0.13500
C533        C  0.16859261  0.63645275  0.45458681    -0.28700
H534        H  0.18583454  0.66363010  0.39100103     0.15500
H535        H  0.14563425  0.61711208  0.47394301     0.16100
C536        C  0.40105139  0.67011721  0.13967933    -0.13500
C537        C  0.44441114  0.66711145  0.15281198    -0.28700
H538        H  0.38709483  0.70351317  0.13131553     0.15500
H539        H  0.45865556  0.63308577  0.15789491     0.16100
C540        C  0.32784299  0.65528397  0.05879068    -0.13500
C541        C  0.32976211  0.63981309  0.10229465    -0.28700
H542        H  0.35728949  0.66569797  0.04217966     0.15500
H543        H  0.29990788  0.62889775  0.11800177     0.16100
C544        C  0.34313135  0.55690090  0.17211079    -0.13500
C545        C  0.36069866  0.60057190  0.17179453    -0.28700
H546        H  0.33433315  0.54168410  0.14029878     0.15500
H547        H  0.37177368  0.61564035  0.20293160     0.16100
C548        C  0.40306084  0.67174393  0.36511322    -0.13500
C549        C  0.44575898  0.66805258  0.35017172    -0.28700
H550        H  0.38980829  0.70563699  0.37305267     0.15500
H551        H  0.45981318  0.63386570  0.34542562     0.16100
C552        C  0.33446842  0.64613388  0.40820913    -0.13500
C553        C  0.32715513  0.63365655  0.45218706    -0.28700
H554        H  0.31164710  0.66950797  0.39214445     0.15500
H555        H  0.34891865  0.60961118  0.46809829     0.16100
C556        C  0.36022897  0.60220586  0.33762484    -0.13500
C557        C  0.34339619  0.55825922  0.33831948    -0.28700
H558        H  0.36966243  0.61700512  0.30586418     0.15500
H559        H  0.33638234  0.54318888  0.37061759     0.16100
C560        C  0.16069353  0.85414375  0.09568019    -0.13500
C561        C  0.16708217  0.86218226  0.05059772    -0.28700
H562        H  0.18482466  0.83387166  0.11351140     0.15500
H563        H  0.14357729  0.88141264  0.03142097     0.16100
C564        C  0.16717790  0.84484646  0.44368165    -0.13500
C565        C  0.16534114  0.86036476  0.39987744    -0.25700
H566        H  0.13767518  0.83317965  0.45924118     0.15500
H567        H  0.19452504  0.87257730  0.38418263     0.16100
C568        C  0.35949846  0.90372476  0.16546921    -0.13500
C569        C  0.34232635  0.94785455  0.16516144    -0.28700
H570        H  0.36930244  0.88877518  0.19709390     0.15500
H571        H  0.33492595  0.96317657  0.13303443     0.16100
C572        C  0.40232676  0.83376592  0.13707268    -0.13500
C573        C  0.44495867  0.83655240  0.15173634    -0.28700
H574        H  0.38913968  0.80020643  0.12873376     0.15500
H575        H  0.45897153  0.87044831  0.15680832     0.16100
C576        C  0.32673857  0.86723193  0.05049281    -0.13500
C577        C  0.33347493  0.85932599  0.09554457    -0.28700
H578        H  0.34937231  0.88725689  0.03133190     0.15500
H579        H  0.31025029  0.83837546  0.11345888     0.16100
C580        C  0.33374520  0.86145324  0.40233119    -0.13500
C581        C  0.32535912  0.87432474  0.44609564    -0.28700
H582        H  0.31256396  0.83697478  0.38597504     0.15500
H583        H  0.34609763  0.89913676  0.46212786     0.16100
C584        C  0.35988912  0.90471389  0.33192787    -0.13500
C585        C  0.34299771  0.94899733  0.33203460    -0.28700
H586        H  0.36949225  0.88930850  0.30036123     0.15500
H587        H  0.33582425  0.96478576  0.36409340     0.16100
C588        C  0.40248007  0.83470716  0.36065297    -0.13500
C589        C  0.44539917  0.83716786  0.34656524    -0.28700
H590        H  0.38903338  0.80128980  0.36900463     0.15500
H591        H  0.45954642  0.87099345  0.34146874     0.16100
N592        N  0.04725171  0.54962776  0.58636977    -0.03200
N593        N  0.07860672  0.55505662  0.61502515    -0.55300
N594        N  0.45202978  0.58775932  0.55513158    -0.02800
N595        N  0.42266131  0.61910748  0.56407443    -0.57400
N596        N  0.45177015  0.55503859  0.58516582    -0.02400
N597        N  0.42184021  0.56239394  0.61518288    -0.55300
N598        N  0.04780788  0.58156923  0.55563246    -0.02100
N599        N  0.07980408  0.60993381  0.56233371    -0.57800
C600        C  0.09868618  0.59283887  0.59950413     0.99000
C601        C  0.40366634  0.60213590  0.60111143     0.98800
N602        N  0.44860889  0.55406891  0.92406357    -0.03400
N603        N  0.41852211  0.56189615  0.89441068    -0.55900
N604        N  0.04598565  0.58111422  0.95610817    -0.01500
N605        N  0.07451219  0.61268761  0.94702916    -0.57100
N606        N  0.04688140  0.54819157  0.92618931    -0.03400
N607        N  0.07675126  0.55551048  0.89620894    -0.56100
N608        N  0.44947171  0.58679991  0.95418558    -0.01100
N609        N  0.42067549  0.61869580  0.94561144    -0.57200
Mn610      Mn  0.99841025  0.58296373  0.00681932     1.18400
C611        C  0.40100721  0.60195788  0.90891361     1.01100
C612        C  0.09413490  0.59549000  0.91027426     1.01800
N613        N  0.45011328  0.95096658  0.57988137    -0.03400
N614        N  0.41997586  0.94421260  0.60965508    -0.59700
N615        N  0.04735344  0.91345005  0.54593663    -0.02200
N616        N  0.07810892  0.88337349  0.55395736    -0.60400
N617        N  0.04666460  0.94567804  0.57652183    -0.02900
N618        N  0.07680586  0.93895287  0.60630840    -0.60000
N619        N  0.45056538  0.91820582  0.54973737    -0.01800
N620        N  0.42097251  0.88751047  0.55821487    -0.60700
Mn621      Mn  0.99924884  0.49882718  0.58841742     1.10700
C622        C  0.40181141  0.90482675  0.59523742     1.02300
C623        C  0.09623941  0.90004245  0.59162126     1.02400
N624        N  0.04510798  0.94586202  0.91888774    -0.02900
N625        N  0.07658552  0.93959897  0.89043413    -0.58300
N626        N  0.44832166  0.92005495  0.94829462    -0.02200
N627        N  0.41612650  0.89184546  0.94223321    -0.55000
N628        N  0.44866541  0.95182635  0.91739369    -0.03500
N629        N  0.41692833  0.94636295  0.88921940    -0.57900
N630        N  0.04532910  0.91397491  0.94966781    -0.02500
N631        N  0.07716154  0.88474601  0.94317143    -0.55000
Mn632      Mn  0.49671937  0.00255368  0.91459406     1.20200
Mn633      Mn  0.49853146  0.91594513  0.49886792     1.10100
Cl634      Cl  0.99941400  0.49907975  0.50568880    -0.83000
C635        C  0.09635237  0.90134754  0.90608844     0.99300
C636        C  0.39686324  0.90876656  0.90524474     0.99100
C637        C  0.36990623  0.87912732  0.87686764     0.00500
C638        C  0.37344314  0.87641660  0.62305802     0.00500
C639        C  0.28748219  0.84821782  0.97628270     0.05200
C640        C  0.28696852  0.85883992  0.52205846     0.05200
C641        C  0.24805304  0.84812278  0.54383797    -0.15300
C642        C  0.20776971  0.84507880  0.52148889     0.05200
C643        C  0.20757498  0.84498695  0.97644254     0.05200
C644        C  0.24779186  0.84068626  0.95458370    -0.15300
H645        H  0.24828443  0.83198054  0.91945403     0.07200
H646        H  0.24905469  0.84439015  0.57945918     0.07200
C647        C  0.37220608  0.63102620  0.88180629     0.00500
C648        C  0.33824021  0.53026717  0.79673423     0.05200
C649        C  0.33681684  0.97890574  0.79002195     0.05200
C650        C  0.33410908  0.95566116  0.74852201    -0.15300
C651        C  0.33745871  0.97831373  0.70679253     0.05200
C652        C  0.33983985  0.53012410  0.71343965     0.05200
C653        C  0.33583548  0.55316847  0.75501730    -0.15300
H654        H  0.33057886  0.59011862  0.75484109     0.07200
H655        H  0.32928933  0.91872320  0.74880531     0.07200
C656        C  0.37502750  0.63086354  0.62902445     0.00500
C657        C  0.28696191  0.64943305  0.98278908     0.05200
C658        C  0.28847062  0.64812727  0.52845152     0.05200
C659        C  0.24900717  0.65516014  0.55091662    -0.15300
C660        C  0.20869488  0.65232898  0.52919016     0.05200
C661        C  0.20723550  0.64668914  0.98297652     0.05200
C662        C  0.24713719  0.64651973  0.96043762    -0.15300
H663        H  0.24748605  0.63844794  0.92516884     0.07200
H664        H  0.24951461  0.65906264  0.58669281     0.07200
C665        C  0.12356648  0.87157987  0.87752878     0.00500
C666        C  0.02140296  0.79077377  0.84799784     0.05200
C667        C  0.47332894  0.79717226  0.84813393     0.05200
C668        C  0.45260307  0.75431907  0.84284184    -0.15300
C669        C  0.47348886  0.71134670  0.84879681     0.05200
C670        C  0.02160157  0.70508288  0.84833761     0.05200
C671        C  0.04234335  0.74774064  0.84230177    -0.15300
H672        H  0.07618698  0.74742055  0.83346951     0.07200
H673        H  0.41879790  0.75432746  0.83396447     0.07200
C674        C  0.12269358  0.62401327  0.88262825     0.00500
C675        C  0.15853411  0.52276025  0.79831667     0.05200
C676        C  0.15542640  0.97069538  0.79043428     0.05200
C677        C  0.15796957  0.94739979  0.74894431    -0.15300
C678        C  0.15527599  0.97034480  0.70739485     0.05200
C679        C  0.15859292  0.52251677  0.71515636     0.05200
C680        C  0.16192142  0.54562800  0.75666958    -0.15300
H681        H  0.16698284  0.58253324  0.75643772     0.07200
H682        H  0.16232923  0.91029580  0.74894675     0.07200
C683        C  0.12567195  0.62212337  0.62823328     0.00500
C684        C  0.12327561  0.87080557  0.62058781     0.00500
C685        C  0.02229230  0.79022512  0.65226036     0.05200
C686        C  0.47667364  0.79662350  0.65703164     0.05200
C687        C  0.45631194  0.75416634  0.66520971    -0.15300
C688        C  0.47713633  0.71097942  0.65973944     0.05200
C689        C  0.02265631  0.70458311  0.65531527     0.05200
C690        C  0.04330369  0.74760398  0.65947836    -0.15300
H691        H  0.07711093  0.74811204  0.66831777     0.07200
H692        H  0.42272291  0.75480636  0.67510898     0.07200
C693        C  0.05162973  0.83168345  0.64555119    -0.13500
C694        C  0.09448784  0.82845652  0.63124202    -0.28700
H695        H  0.03758850  0.86575623  0.65109076     0.15500
H696        H  0.10827207  0.79499974  0.62249975     0.16100
C697        C  0.05275735  0.66252798  0.65159367    -0.13500
C698        C  0.09619227  0.66476339  0.63867157    -0.28700
H699        H  0.03868407  0.62883787  0.65754518     0.15500
H700        H  0.11003706  0.69769095  0.62941042     0.16100
C701        C  0.15157219  0.94114267  0.66538447    -0.13500
C702        C  0.13386277  0.89767240  0.66420613    -0.28700
H703        H  0.16093341  0.95643528  0.63383804     0.15500
H704        H  0.12249901  0.88232157  0.69505411     0.16100
C705        C  0.15469507  0.55157640  0.67302182    -0.13500
C706        C  0.13702850  0.59545800  0.67183561    -0.28700
H707        H  0.16359372  0.53573955  0.64144141     0.15500
H708        H  0.12604906  0.61126962  0.70276969     0.16100
C709        C  0.15398510  0.55228703  0.84032195    -0.13500
C710        C  0.13682396  0.59639923  0.84046998    -0.28700
H711        H  0.16131827  0.53657393  0.87231200     0.15500
H712        H  0.12712941  0.61170171  0.80896025     0.16100
C713        C  0.05102364  0.66303910  0.85445389    -0.13500
C714        C  0.09360378  0.66585085  0.86920959    -0.28700
H715        H  0.03710186  0.62912128  0.84916956     0.15500
H716        H  0.10669600  0.69940800  0.87779168     0.16100
C717        C  0.15188276  0.94172487  0.83257558    -0.13500
C718        C  0.13461126  0.89798095  0.83387386    -0.28700
H719        H  0.16081874  0.95747085  0.86409456     0.15500
H720        H  0.12354487  0.88217678  0.80309957     0.16100
C721        C  0.05116054  0.83231784  0.85334466    -0.13500
C722        C  0.09431300  0.82927030  0.86710319    -0.28700
H723        H  0.03711647  0.86629113  0.84750154     0.15500
H724        H  0.10803482  0.79597633  0.87624015     0.16100
C725        C  0.16712440  0.63356309  0.60106648    -0.13500
C726        C  0.16820490  0.65075258  0.55805080    -0.28700
H727        H  0.19708023  0.62148035  0.61598994     0.15500
H728        H  0.13836278  0.66217477  0.54253161     0.16100
C729        C  0.16202026  0.64031389  0.91116788    -0.13500
C730        C  0.16797166  0.63297250  0.95646677    -0.28700
H731        H  0.18550042  0.66111426  0.89343686     0.15500
H732        H  0.14505132  0.61334771  0.97564500     0.16100
C733        C  0.40425643  0.67248754  0.64192159    -0.13500
C734        C  0.44743698  0.66932195  0.65532592    -0.28700
H735        H  0.39072729  0.70605949  0.63346985     0.15500
H736        H  0.46169616  0.63531241  0.66042314     0.16100
C737        C  0.32763184  0.63538242  0.55636850    -0.13500
C738        C  0.33513016  0.64695263  0.60061711    -0.28700
H739        H  0.34940583  0.61164475  0.53997458     0.15500
H740        H  0.31285147  0.67039326  0.61741199     0.16100
C741        C  0.34480327  0.55945676  0.67146733    -0.13500
C742        C  0.36151747  0.60351225  0.67133522    -0.28700
H743        H  0.33770002  0.54371462  0.63943966     0.15500
H744        H  0.37103542  0.61895502  0.70282975     0.16100
C745        C  0.40113540  0.67284151  0.86891928    -0.13500
C746        C  0.44402248  0.66970478  0.85459139    -0.28700
H747        H  0.38767809  0.70645016  0.87763684     0.15500
H748        H  0.45818284  0.63566051  0.84920546     0.16100
C749        C  0.33263346  0.64667413  0.91090415    -0.13500
C750        C  0.32691234  0.63800397  0.95604530    -0.28700
H751        H  0.30837100  0.66738161  0.89376027     0.15500
H752        H  0.35043742  0.61840751  0.97480621     0.16100
C753        C  0.35842930  0.60393612  0.83935833    -0.13500
C754        C  0.34191183  0.55979213  0.83883911    -0.28700
H755        H  0.36810333  0.61953957  0.80807522     0.15500
H756        H  0.33454134  0.54400259  0.87070759     0.16100
C757        C  0.16507602  0.85972131  0.59380046    -0.13500
C758        C  0.16720539  0.84332774  0.55038928    -0.28700
H759        H  0.19406242  0.87281746  0.60935646     0.15500
H760        H  0.13795477  0.83087309  0.53486822     0.16100
C761        C  0.16686637  0.84479036  0.94803529    -0.13500
C762        C  0.16530272  0.86010123  0.90443919    -0.25700
H763        H  0.13730291  0.83438087  0.96439542     0.15500
H764        H  0.19518642  0.87110013  0.88890680     0.16100
C765        C  0.35931966  0.90421633  0.66511974    -0.13500
C766        C  0.34236105  0.94847590  0.66498376    -0.28700
H767        H  0.36887342  0.88895509  0.69667521     0.15500
H768        H  0.33523294  0.96399496  0.63287875     0.16100
C769        C  0.40342273  0.83487369  0.63661632    -0.13500
C770        C  0.44652822  0.83825802  0.65035909    -0.28700
H771        H  0.39044203  0.80099577  0.62909541     0.15500
H772        H  0.46038772  0.87234580  0.65461793     0.16100
C773        C  0.32537632  0.87313317  0.55052756    -0.13500
C774        C  0.33382196  0.86037062  0.59436009    -0.28700
H775        H  0.34622787  0.89791085  0.53473545     0.15500
H776        H  0.31252694  0.83601172  0.61063574     0.16100
C777        C  0.32863973  0.86716367  0.90435034    -0.13500
C778        C  0.32800832  0.85074909  0.94764986    -0.28700
H779        H  0.29815866  0.87777545  0.88942886     0.15500
H780        H  0.35803695  0.84062132  0.96353137     0.16100
C781        C  0.35812633  0.90574033  0.83335136    -0.13500
C782        C  0.34072473  0.94980220  0.83218506    -0.28700
H783        H  0.36898126  0.88981051  0.80243904     0.15500
H784        H  0.33206091  0.96571841  0.86379420     0.16100
C785        C  0.39981025  0.83670467  0.86621296    -0.13500
C786        C  0.44319356  0.83919339  0.85297133    -0.28700
H787        H  0.38626163  0.80355952  0.87529296     0.15500
H788        H  0.45715393  0.87298633  0.84724639     0.16100
N789        N  0.54580765  0.05281058  0.07690131    -0.03200
N790        N  0.57712357  0.05864057  0.10547333    -0.55300
N791        N  0.94734687  0.08162204  0.04723116    -0.02800
N792        N  0.91627054  0.11161779  0.05433445    -0.57400
N793        N  0.94726013  0.04954512  0.07787541    -0.02400
N794        N  0.91622282  0.05638859  0.10672632    -0.55300
N795        N  0.54592840  0.08494044  0.04632203    -0.02100
N796        N  0.57748693  0.11384869  0.05308402    -0.57800
C797        C  0.59667017  0.09682681  0.09008827     0.99000
C798        C  0.89704733  0.09514604  0.09143948     0.98800
N799        N  0.94980555  0.04942103  0.41562877    -0.03400
N800        N  0.92034895  0.05721747  0.38529221    -0.55900
N801        N  0.54456294  0.08656177  0.44749179    -0.01500
N802        N  0.57317068  0.11794570  0.43814998    -0.57100
N803        N  0.54518701  0.05353422  0.41769510    -0.03400
N804        N  0.57491056  0.06056088  0.38753359    -0.56100
N805        N  0.95010512  0.08211837  0.44587239    -0.01100
N806        N  0.92128130  0.11393479  0.43672971    -0.57200
Mn807      Mn  0.49755557  0.08873257  0.49863670     1.18400
C808        C  0.90253170  0.09720470  0.39941180     1.01100
C809        C  0.59254695  0.10045979  0.40137747     1.01800
N810        N  0.95027471  0.44602948  0.08773502    -0.03400
N811        N  0.91842617  0.44081430  0.11591476    -0.59700
N812        N  0.54605683  0.41853021  0.05391602    -0.02200
N813        N  0.57771577  0.38916664  0.06058760    -0.60400
N814        N  0.54569881  0.45053267  0.08472327    -0.02900
N815        N  0.57684616  0.44416198  0.11348461    -0.60000
N816        N  0.94981656  0.41420303  0.05671397    -0.01800
N817        N  0.91741267  0.38619600  0.06271880    -0.60700
Mn818      Mn  0.49747960  0.00211987  0.07993479     1.10700
C819        C  0.89810429  0.40334806  0.09974785     1.02300
C820        C  0.59660893  0.40576271  0.09786882     1.02400
N821        N  0.54763561  0.45140667  0.42460803    -0.02900
N822        N  0.57867163  0.44484048  0.39569446    -0.58300
N823        N  0.95113402  0.41592565  0.45597758    -0.02200
N824        N  0.91978773  0.38679927  0.44885331    -0.55000
N825        N  0.95122540  0.44819390  0.42552986    -0.03500
N826        N  0.92008308  0.44231240  0.39673558    -0.57900
N827        N  0.54781382  0.41922447  0.45513417    -0.02500
N828        N  0.57909443  0.38949526  0.44795481    -0.55000
Mn829      Mn  0.99939925  0.49912994  0.42322246     1.20200
Mn830      Mn  0.99891751  0.41064764  0.00662831     1.10100
Cl831      Cl  0.49692642  0.00236717  0.99737333    -0.83000
C832        C  0.59812078  0.40614208  0.41084039     0.99300
C833        C  0.90063077  0.40394250  0.41186456     0.99100
C834        C  0.87328534  0.37495407  0.38308089     0.00500
C835        C  0.87035653  0.37416911  0.12784639     0.00500
C836        C  0.78933387  0.34683895  0.48126037     0.05200
C837        C  0.78664689  0.34586093  0.02821620     0.05200
C838        C  0.74659436  0.33996492  0.04979915    -0.15300
C839        C  0.70641648  0.34270278  0.02739833     0.05200
C840        C  0.70921755  0.34766110  0.48096313     0.05200
C841        C  0.74933658  0.34168854  0.45921942    -0.15300
H842        H  0.74944325  0.33325457  0.42406689     0.07200
H843        H  0.74669105  0.33313545  0.08521666     0.07200
C844        C  0.87313443  0.12560449  0.37223164     0.00500
C845        C  0.83696270  0.02478339  0.28853680     0.05200
C846        C  0.83878453  0.47486465  0.29789949     0.05200
C847        C  0.83527773  0.45143703  0.25652894    -0.15300
C848        C  0.83773853  0.47408707  0.21490114     0.05200
C849        C  0.83607468  0.02434466  0.20539965     0.05200
C850        C  0.83315162  0.04755566  0.24694434    -0.15300
H851        H  0.82811348  0.08453850  0.24687672     0.07200
H852        H  0.83077748  0.41440802  0.25671527     0.07200
C853        C  0.86965879  0.12478036  0.11993749     0.00500
C854        C  0.78708822  0.13956435  0.47326166     0.05200
C855        C  0.78705861  0.15359798  0.02007573     0.05200
C856        C  0.74704368  0.16024497  0.04178376    -0.15300
C857        C  0.70711565  0.15439577  0.02006075     0.05200
C858        C  0.70750029  0.14642102  0.47400344     0.05200
C859        C  0.74719450  0.14330205  0.45108976    -0.15300
H860        H  0.74684679  0.13764105  0.41542417     0.07200
H861        H  0.74691937  0.16941897  0.07678483     0.07200
C862        C  0.62509105  0.37640997  0.38198681     0.00500
C863        C  0.52222705  0.29741944  0.34857950     0.05200
C864        C  0.97453341  0.29345144  0.34870536     0.05200
C865        C  0.95338585  0.25145901  0.33984025    -0.15300
C866        C  0.97406489  0.20792550  0.34217720     0.05200
C867        C  0.52140433  0.21189079  0.34292506     0.05200
C868        C  0.54267710  0.25475564  0.33997111    -0.15300
H869        H  0.57653193  0.25503767  0.33130649     0.07200
H870        H  0.91946095  0.25280766  0.33153778     0.07200
C871        C  0.62154613  0.12842225  0.37373821     0.00500
C872        C  0.65481103  0.02667052  0.28861844     0.05200
C873        C  0.65734916  0.47653554  0.29605907     0.05200
C874        C  0.65967581  0.45325521  0.25448239    -0.15300
C875        C  0.65649375  0.47609244  0.21296685     0.05200
C876        C  0.65541929  0.02594527  0.20540855     0.05200
C877        C  0.65800111  0.04928815  0.24691699    -0.15300
H878        H  0.66295462  0.08619275  0.24670172     0.07200
H879        H  0.66422895  0.41619976  0.25437021     0.07200
C880        C  0.62377354  0.12608702  0.11877496     0.00500
C881        C  0.62386539  0.37609948  0.12630718     0.00500
C882        C  0.52186548  0.29410633  0.15314711     0.05200
C883        C  0.97258921  0.29071669  0.15580221     0.05200
C884        C  0.95139967  0.24786318  0.15962559    -0.15300
C885        C  0.97195414  0.20490490  0.15249514     0.05200
C886        C  0.52180518  0.20826300  0.15039750     0.05200
C887        C  0.54274374  0.25078753  0.15693814    -0.15300
H888        H  0.57661209  0.24998855  0.16537867     0.07200
H889        H  0.91749365  0.24782022  0.16805137     0.07200
C890        C  0.55148227  0.33602398  0.14955534    -0.13500
C891        C  0.59490269  0.33362706  0.13670076    -0.28700
H892        H  0.53702856  0.36982214  0.15554535     0.15500
H893        H  0.60915278  0.30059560  0.12743280     0.16100
C894        C  0.55144258  0.16625356  0.14383606    -0.13500
C895        C  0.59442623  0.16874391  0.12966068    -0.28700
H896        H  0.53750722  0.13241939  0.14939210     0.15500
H897        H  0.60799934  0.20196689  0.12082232     0.16100
C898        C  0.65245087  0.44672740  0.17092467    -0.13500
C899        C  0.63527813  0.40287468  0.16986010    -0.28700
H900        H  0.66100858  0.46229075  0.13926337     0.15500
H901        H  0.62456266  0.38724845  0.20080322     0.16100
C902        C  0.65206088  0.05504759  0.16330752    -0.13500
C903        C  0.63496481  0.09921088  0.16220141    -0.28700
H904        H  0.66091845  0.03912137  0.13175682     0.15500
H905        H  0.62391977  0.11508823  0.19305987     0.16100
C906        C  0.65088983  0.05630403  0.33067111    -0.13500
C907        C  0.63457070  0.10078354  0.33117391    -0.28700
H908        H  0.65833505  0.04049604  0.36256092     0.15500
H909        H  0.62482669  0.11647563  0.29987193     0.16100
C910        C  0.55052133  0.16934475  0.34664224    -0.13500
C911        C  0.59326093  0.17102221  0.36112346    -0.28700
H912        H  0.53616992  0.13580572  0.34032083     0.15500
H913        H  0.60703187  0.20393953  0.37073817     0.16100
C914        C  0.65373439  0.44727777  0.33800012    -0.13500
C915        C  0.63642326  0.40348572  0.33879656    -0.28700
H916        H  0.66262022  0.46279869  0.36964341     0.15500
H917        H  0.62529714  0.38812523  0.30784900     0.16100
C918        C  0.55221566  0.33846303  0.35656922    -0.13500
C919        C  0.59528402  0.33458366  0.37055057    -0.28700
H920        H  0.53842666  0.37277320  0.35200582     0.15500
H921        H  0.60865809  0.30073665  0.37831347     0.16100
C922        C  0.66533276  0.13752976  0.09180212    -0.13500
C923        C  0.66648454  0.15372144  0.04852556    -0.28700
H924        H  0.69552911  0.12627099  0.10695189     0.15500
H925        H  0.63668742  0.16441791  0.03243393     0.16100
C926        C  0.66154578  0.14328687  0.40214699    -0.13500
C927        C  0.66719286  0.13617721  0.44756317    -0.28700
H928        H  0.68594336  0.16257495  0.38414066     0.15500
H929        H  0.64320997  0.11834911  0.46695063     0.16100
C930        C  0.89903620  0.16687645  0.13151853    -0.13500
C931        C  0.94208407  0.16353194  0.14559207    -0.28700
H932        H  0.88546834  0.20050348  0.12323359     0.15500
H933        H  0.95603839  0.12936883  0.15067874     0.16100
C934        C  0.82756323  0.15244161  0.04876009    -0.13500
C935        C  0.82841708  0.13704631  0.09240790    -0.28700
H936        H  0.85740002  0.16229262  0.03258338     0.15500
H937        H  0.79811136  0.12662900  0.10751589     0.16100
C938        C  0.84038627  0.05370396  0.16350470    -0.13500
C939        C  0.85767788  0.09758812  0.16297232    -0.28700
H940        H  0.83208262  0.03809951  0.13170468     0.15500
H941        H  0.86820876  0.11300723  0.19413519     0.16100
C942        C  0.90141673  0.16805750  0.35950039    -0.13500
C943        C  0.94449329  0.16591460  0.34545530    -0.28700
H944        H  0.88739549  0.20117232  0.36884232     0.15500
H945        H  0.95896007  0.13217227  0.33922599     0.16100
C946        C  0.83325888  0.14015672  0.40144542    -0.13500
C947        C  0.82601478  0.12676912  0.44517221    -0.28700
H948        H  0.81031961  0.16374939  0.38585181     0.15500
H949        H  0.84790415  0.10265002  0.46088652     0.16100
C950        C  0.85945240  0.09822666  0.33004249    -0.13500
C951        C  0.84235223  0.05437616  0.33026801    -0.28700
H952        H  0.86884878  0.11348355  0.29848380     0.15500
H953        H  0.83528855  0.03897608  0.36240833     0.16100
C954        C  0.66513763  0.36398540  0.09884180    -0.13500
C955        C  0.66591807  0.34553976  0.05622009    -0.28700
H956        H  0.69520032  0.37608619  0.11322284     0.15500
H957        H  0.63590818  0.33409574  0.04149945     0.16100
C958        C  0.66838753  0.34876569  0.45253114    -0.13500
C959        C  0.66683743  0.36403190  0.40885727    -0.25700
H960        H  0.63868271  0.33899224  0.46903857     0.15500
H961        H  0.69694660  0.37434101  0.39324557     0.16100
C962        C  0.85893967  0.40072363  0.17158201    -0.13500
C963        C  0.84147986  0.44468710  0.17284127    -0.28700
H964        H  0.86978544  0.38482923  0.20241907     0.15500
H965        H  0.83268502  0.46033658  0.14125621     0.16100
C966        C  0.89949946  0.33119879  0.13820693    -0.13500
C967        C  0.94278889  0.33302264  0.15184586    -0.28700
H968        H  0.88559398  0.29841174  0.12844739     0.15500
H969        H  0.95700054  0.36657198  0.15833504     0.16100
C970        C  0.82741424  0.34782732  0.05675403    -0.13500
C971        C  0.82869525  0.36332957  0.10040851    -0.28700
H972        H  0.85730250  0.33755407  0.04050718     0.15500
H973        H  0.79849031  0.37415208  0.11589917     0.16100
C974        C  0.83166084  0.36341907  0.40984675    -0.13500
C975        C  0.83020214  0.34736815  0.45310575    -0.28700
H976        H  0.80157645  0.37471434  0.39453310     0.15500
H977        H  0.85990012  0.33671615  0.46939146     0.16100
C978        C  0.86176623  0.40220931  0.34011196    -0.13500
C979        C  0.84369875  0.44586664  0.33974131    -0.28700
H980        H  0.87275720  0.38692610  0.30893294     0.15500
H981        H  0.83494327  0.46135134  0.37154212     0.16100
C982        C  0.90244095  0.33244250  0.37141330    -0.13500
C983        C  0.94523667  0.33527424  0.35690128    -0.28700
H984        H  0.88892574  0.29898018  0.37948841     0.15500
H985        H  0.95923366  0.36918986  0.35205962     0.16100
N986        N  0.54605838  0.05299421  0.57902560    -0.03200
N987        N  0.57699749  0.05893343  0.60801034    -0.55300
N988        N  0.95065398  0.08159680  0.54753648    -0.02800
N989        N  0.92171490  0.11324630  0.55692892    -0.57400
N990        N  0.95027691  0.04864413  0.57730580    -0.02400
N991        N  0.92071526  0.05614395  0.60767062    -0.55300
N992        N  0.54642341  0.08507859  0.54840927    -0.02100
N993        N  0.57769123  0.11420720  0.55564982    -0.57800
C994        C  0.59652023  0.09720623  0.59284380     0.99000
C995        C  0.90287771  0.09622478  0.59399272     0.98800
N996        N  0.94921536  0.04943280  0.91643591    -0.03400
N997        N  0.91948688  0.05682078  0.88626814    -0.55900
N998        N  0.54393851  0.08663822  0.94579958    -0.01500
N999        N  0.57310536  0.11767531  0.93718726    -0.57100
N1000       N  0.54461314  0.05381807  0.91579162    -0.03400
N1001       N  0.57478273  0.06074642  0.88606534    -0.56100
N1002       N  0.94971905  0.08247763  0.94621066    -0.01100
N1003       N  0.92087716  0.11417539  0.93691571    -0.57200
Mn1004     Mn  0.49674599  0.08862538  0.99693265     1.18400
C1005       C  0.90165911  0.09697512  0.90009588     1.01100
C1006       C  0.59265920  0.10035558  0.90045127     1.01800
N1007       N  0.95151500  0.44741260  0.58661329    -0.03400
N1008       N  0.92124018  0.44027724  0.61614730    -0.59700
N1009       N  0.54646105  0.41757482  0.55566700    -0.02200
N1010       N  0.57505114  0.38552662  0.56471231    -0.60400
N1011       N  0.54736196  0.45060193  0.58542755    -0.02900
N1012       N  0.57715832  0.44281216  0.61539290    -0.60000
N1013       N  0.95249175  0.41461626  0.55659577    -0.01800
N1014       N  0.92339748  0.38342658  0.56498459    -0.60700
Mn1015     Mn  0.49793565  0.00224289  0.58151045     1.10700
C1016       C  0.90359879  0.40059116  0.60165480     1.02300
C1017       C  0.59457990  0.40249477  0.60142282     1.02400
N1018       N  0.54501907  0.45042219  0.92342342    -0.02900
N1019       N  0.57576558  0.44370635  0.89423269    -0.58300
N1020       N  0.95114391  0.41289819  0.95588566    -0.02200
N1021       N  0.92149778  0.38229943  0.94710733    -0.55000
N1022       N  0.95069088  0.44589623  0.92619511    -0.03500
N1023       N  0.92035172  0.43951984  0.89659916    -0.57900
N1024       N  0.54542847  0.41827521  0.95393907    -0.02500
N1025       N  0.57658948  0.38843105  0.94661446    -0.55000
Mn1026     Mn  0.99878710  0.49693264  0.92449937     1.20200
Mn1027     Mn  0.00004703  0.41290221  0.50595986     1.10100
Cl1028     Cl  0.49763366  0.00231083  0.49886560    -0.83000
C1029       C  0.59529335  0.40498709  0.90932428     0.99300
C1030       C  0.90209296  0.40002846  0.91049363     0.99100
C1031       C  0.87423554  0.37174225  0.88170857     0.00500
C1032       C  0.87507351  0.37197242  0.62921916     0.00500
C1033       C  0.78684390  0.34871792  0.98019822     0.05200
C1034       C  0.78919158  0.35208418  0.52914374     0.05200
C1035       C  0.74917158  0.35355644  0.55155516    -0.15300
C1036       C  0.70924504  0.35285533  0.52891528     0.05200
C1037       C  0.70653664  0.34387776  0.97904724     0.05200
C1038       C  0.74721241  0.34460472  0.95722995    -0.15300
H1039       H  0.74820187  0.34424156  0.92138341     0.07200
H1040       H  0.74911024  0.36092233  0.58693625     0.07200
C1041       C  0.87315926  0.12564705  0.87213308     0.00500
C1042       C  0.83831634  0.02383395  0.78816832     0.05200
C1043       C  0.84079990  0.47373477  0.79734939     0.05200
C1044       C  0.83752328  0.45080382  0.75568289    -0.15300
C1045       C  0.84087493  0.47359047  0.71407140     0.05200
C1046       C  0.83853169  0.02348960  0.70496893     0.05200
C1047       C  0.83449193  0.04648998  0.74655684    -0.15300
H1048       H  0.82851972  0.08333628  0.74656398     0.07200
H1049       H  0.83195644  0.41399711  0.75563118     0.07200
C1050       C  0.87434163  0.12488693  0.62197844     0.00500
C1051       C  0.78707529  0.14753633  0.97219553     0.05200
C1052       C  0.78762964  0.14204676  0.52143974     0.05200
C1053       C  0.74844619  0.15111156  0.54382655    -0.15300
C1054       C  0.70795693  0.15050725  0.52211376     0.05200
C1055       C  0.70718466  0.14849654  0.97228989     0.05200
C1056       C  0.74712109  0.14653259  0.94970584    -0.15300
H1057       H  0.74707554  0.13857032  0.91440983     0.07200
H1058       H  0.74933154  0.15565080  0.57945753     0.07200
C1059       C  0.62212298  0.37529041  0.88040311     0.00500
C1060       C  0.51920265  0.29643113  0.84760223     0.05200
C1061       C  0.97645994  0.29180103  0.84712563     0.05200
C1062       C  0.95549890  0.24963752  0.83843348    -0.15300
C1063       C  0.97578662  0.20615613  0.84309590     0.05200
C1064       C  0.51911531  0.21081545  0.84272813     0.05200
C1065       C  0.53985264  0.25384893  0.83882188    -0.15300
H1066       H  0.57351466  0.25435996  0.82935279     0.07200
H1067       H  0.92198290  0.25079156  0.82850599     0.07200
C1068       C  0.62123228  0.12880129  0.87282784     0.00500
C1069       C  0.65783093  0.02703156  0.78984139     0.05200
C1070       C  0.65580336  0.47605771  0.79604426     0.05200
C1071       C  0.65988167  0.45293898  0.75463506    -0.15300
C1072       C  0.65690140  0.47561602  0.71301429     0.05200
C1073       C  0.65796983  0.02637107  0.70692213     0.05200
C1074       C  0.66151454  0.04960219  0.74824437    -0.15300
H1075       H  0.66682528  0.08650118  0.74792351     0.07200
H1076       H  0.66557632  0.41605633  0.75494418     0.07200
C1077       C  0.62363236  0.12627657  0.62156325     0.00500
C1078       C  0.62338125  0.37378303  0.62902493     0.00500
C1079       C  0.52213789  0.29321105  0.66066711     0.05200
C1080       C  0.97697931  0.28969344  0.65933987     0.05200
C1081       C  0.95617629  0.24678550  0.66403824    -0.15300
C1082       C  0.97671125  0.20399515  0.65590898     0.05200
C1083       C  0.52176065  0.20762612  0.65585257     0.05200
C1084       C  0.54280799  0.24973183  0.66400228    -0.15300
H1085       H  0.57668561  0.24850376  0.67248072     0.07200
H1086       H  0.92250867  0.24662566  0.67368314     0.07200
C1087       C  0.55178243  0.33490736  0.65644280    -0.13500
C1088       C  0.59463691  0.33198859  0.64210064    -0.28700
H1089       H  0.53767205  0.36889578  0.66233669     0.15500
H1090       H  0.60820197  0.29857363  0.63298375     0.16100
C1091       C  0.55132556  0.16583202  0.64767884    -0.13500
C1092       C  0.59418834  0.16874818  0.63304944    -0.28700
H1093       H  0.53747294  0.13186639  0.65264878     0.15500
H1094       H  0.60759409  0.20221237  0.62481662     0.16100
C1095       C  0.65321250  0.44571722  0.67118943    -0.13500
C1096       C  0.63687942  0.40146567  0.67117675    -0.28700
H1097       H  0.66050823  0.46123158  0.63915534     0.15500
H1098       H  0.62717337  0.38619845  0.70262366     0.16100
C1099       C  0.65333806  0.05550259  0.66510364    -0.13500
C1100       C  0.63511617  0.09910830  0.66467082    -0.28700
H1101       H  0.66223423  0.04012105  0.63332287     0.15500
H1102       H  0.62406263  0.11435949  0.69583252     0.16100
C1103       C  0.65281193  0.05697875  0.83142115    -0.13500
C1104       C  0.63528048  0.10095020  0.83090779    -0.28700
H1105       H  0.66015215  0.04174832  0.86361316     0.15500
H1106       H  0.62547974  0.11587186  0.79926654     0.16100
C1107       C  0.54887140  0.16855527  0.84646546    -0.13500
C1108       C  0.59208795  0.17083534  0.85973295    -0.28700
H1109       H  0.53458542  0.13481841  0.84120411     0.15500
H1110       H  0.60574241  0.20407437  0.86834358     0.16100
C1111       C  0.65132913  0.44646294  0.83757073    -0.13500
C1112       C  0.63373555  0.40277669  0.83756418    -0.28700
H1113       H  0.65987722  0.46160041  0.86950226     0.15500
H1114       H  0.62288878  0.38787569  0.80626470     0.16100
C1115       C  0.54914746  0.33754799  0.85510467    -0.13500
C1116       C  0.59229673  0.33362019  0.86875684    -0.28700
H1117       H  0.53527953  0.37182482  0.85068504     0.15500
H1118       H  0.60568161  0.29976718  0.87642531     0.16100
C1119       C  0.66533963  0.13725069  0.59459882    -0.13500
C1120       C  0.66724303  0.15215661  0.55083466    -0.28700
H1121       H  0.69492908  0.12535633  0.61036471     0.15500
H1122       H  0.63777012  0.16347370  0.53449404     0.16100
C1123       C  0.66093125  0.14456427  0.90112105    -0.13500
C1124       C  0.66734572  0.13619915  0.94610673    -0.28700
H1125       H  0.68462540  0.16518228  0.88347131     0.15500
H1126       H  0.64428579  0.11664116  0.96519860     0.16100
C1127       C  0.90381027  0.16625398  0.63566186    -0.13500
C1128       C  0.94693685  0.16259340  0.64925308    -0.28700
H1129       H  0.89045791  0.20018492  0.62828417     0.15500
H1130       H  0.96107927  0.12840283  0.65333711     0.16100
C1131       C  0.82663160  0.12879971  0.54944648    -0.13500
C1132       C  0.83463133  0.14123735  0.59341939    -0.28700
H1133       H  0.84786903  0.10420609  0.53337924     0.15500
H1134       H  0.81280679  0.16533669  0.60994002     0.16100
C1135       C  0.84333575  0.05318870  0.66328421    -0.13500
C1136       C  0.86040115  0.09709915  0.66378517    -0.28700
H1137       H  0.83616872  0.03785507  0.63109396     0.15500
H1138       H  0.87002063  0.11200557  0.69547120     0.16100
C1139       C  0.90231498  0.16736023  0.85903981    -0.13500
C1140       C  0.94583039  0.16445113  0.84659875    -0.28700
H1141       H  0.88836015  0.20092647  0.86693528     0.15500
H1142       H  0.96029274  0.13043129  0.84190732     0.16100
C1143       C  0.83324028  0.14200333  0.90051630    -0.13500
C1144       C  0.82685582  0.13423717  0.94573646    -0.28700
H1145       H  0.80947340  0.16281487  0.88275566     0.15500
H1146       H  0.84993152  0.11447033  0.96496196     0.16100
C1147       C  0.85958896  0.09776889  0.82996159    -0.13500
C1148       C  0.84270431  0.05373726  0.83000894    -0.28700
H1149       H  0.86928599  0.11279066  0.79837781     0.15500
H1150       H  0.83537616  0.03837456  0.86210440     0.16100
C1151       C  0.66321261  0.35766725  0.60057329    -0.13500
C1152       C  0.66941016  0.36563807  0.55543372    -0.28700
H1153       H  0.68706639  0.33684454  0.61823866     0.15500
H1154       H  0.64608742  0.38532741  0.53639609     0.16100
C1155       C  0.66561799  0.34586685  0.95036041    -0.13500
C1156       C  0.66379896  0.36266454  0.90716197    -0.25700
H1157       H  0.63581125  0.33502571  0.96593393     0.15500
H1158       H  0.69338925  0.37413709  0.89152148     0.16100
C1159       C  0.86152872  0.39950511  0.67168739    -0.13500
C1160       C  0.84484951  0.44388974  0.67205839    -0.28700
H1161       H  0.87134748  0.38397292  0.70304672     0.15500
H1162       H  0.83741494  0.45963169  0.64012825     0.16100
C1163       C  0.90421170  0.32976222  0.64187807    -0.13500
C1164       C  0.94734333  0.33199056  0.65536327    -0.28700
H1165       H  0.89063313  0.29651399  0.63312441     0.15500
H1166       H  0.96160178  0.36570069  0.66076287     0.16100
C1167       C  0.82903790  0.36422891  0.55567445    -0.13500
C1168       C  0.83520433  0.35643498  0.60087511    -0.28700
H1169       H  0.85245692  0.38321100  0.53653980     0.15500
H1170       H  0.81133403  0.33619732  0.61865340     0.16100
C1171       C  0.83404100  0.35496402  0.90884385    -0.13500
C1172       C  0.82650021  0.36261680  0.95389732    -0.28700
H1173       H  0.81154094  0.33379856  0.89021028     0.15500
H1174       H  0.84887432  0.38289071  0.97323741     0.16100
C1175       C  0.86124096  0.39978399  0.83949735    -0.13500
C1176       C  0.84458134  0.44414327  0.83931376    -0.28700
H1177       H  0.87148605  0.38454096  0.80804397     0.15500
H1178       H  0.83678197  0.45983632  0.87127433     0.16100
C1179       C  0.90401841  0.33028179  0.86823996    -0.13500
C1180       C  0.94693235  0.33363047  0.85434697    -0.28700
H1181       H  0.89095056  0.29646250  0.87567398     0.15500
H1182       H  0.96091649  0.36765702  0.85027294     0.16100
N1183       N  0.54557757  0.55278364  0.08509329    -0.03200
N1184       N  0.57656887  0.55874394  0.11405252    -0.55300
N1185       N  0.94983504  0.58007716  0.05704880    -0.02800
N1186       N  0.91783741  0.60907751  0.06343595    -0.57400
N1187       N  0.95033258  0.54834529  0.08799427    -0.02400
N1188       N  0.91883616  0.55458754  0.11652611    -0.55300
N1189       N  0.54585515  0.58492585  0.05454843    -0.02100
N1190       N  0.57716552  0.61404449  0.06174014    -0.57800
C1191       C  0.59612416  0.59702386  0.09887419     0.99000
C1192       C  0.89875225  0.59261026  0.10057805     0.98800
N1193       N  0.95112663  0.55097873  0.42460215    -0.03400
N1194       N  0.92137280  0.55834230  0.39446483    -0.55900
N1195       N  0.54661676  0.58716486  0.45299481    -0.01500
N1196       N  0.57543455  0.61841971  0.44393881    -0.57100
N1197       N  0.54736291  0.55409758  0.42324328    -0.03400
N1198       N  0.57735445  0.56101242  0.39333743    -0.56100
N1199       N  0.95167310  0.58411434  0.45431686    -0.01100
N1200       N  0.92297863  0.61595505  0.44484636    -0.57200
Mn1201     Mn  0.49946335  0.58953231  0.50394338     1.18400
C1202       C  0.90365729  0.59859717  0.40813482     1.01100
C1203       C  0.59501906  0.60086415  0.40734190     1.01800
N1204       N  0.94749134  0.94674067  0.07945730    -0.03400
N1205       N  0.91773163  0.93944976  0.10951851    -0.59700
N1206       N  0.54488015  0.91712527  0.04850838    -0.02200
N1207       N  0.57348713  0.88513422  0.05773158    -0.60400
N1208       N  0.54564296  0.95017853  0.07825783    -0.02900
N1209       N  0.57544224  0.94257398  0.10826352    -0.60000
N1210       N  0.94854293  0.91358099  0.04977432    -0.01800
N1211       N  0.92030289  0.88182055  0.05916515    -0.60700
Mn1212     Mn  0.49738659  0.50192726  0.08712537     1.10700
C1213       C  0.90057808  0.89926564  0.09573262     1.02300
C1214       C  0.59296724  0.90227564  0.09442204     1.02400
N1215       N  0.54579857  0.95094235  0.41816214    -0.02900
N1216       N  0.57583840  0.94409879  0.38824048    -0.58300
N1217       N  0.95067681  0.91337286  0.44488098    -0.02200
N1218       N  0.92090698  0.88287849  0.43611398    -0.55000
N1219       N  0.95021559  0.94639178  0.41513699    -0.03500
N1220       N  0.91992408  0.94007060  0.38546079    -0.57900
N1221       N  0.54654635  0.91866686  0.44855780    -0.02500
N1222       N  0.57721818  0.88852048  0.44034910    -0.55000
Mn1223     Mn  0.99803132  0.99765465  0.41349881     1.20200
Mn1224     Mn  0.99630799  0.91141011  0.99936355     1.10100
Cl1225     Cl  0.49711438  0.50214332  0.00428610    -0.83000
C1226       C  0.59529574  0.90518220  0.40276280     0.99300
C1227       C  0.90166088  0.90064933  0.39939288     0.99100
C1228       C  0.87278589  0.87287888  0.37132283     0.00500
C1229       C  0.87156766  0.87122229  0.12319786     0.00500
C1230       C  0.78625110  0.85594550  0.47192286     0.05200
C1231       C  0.78718080  0.85086593  0.02194875     0.05200
C1232       C  0.74719568  0.85242333  0.04439815    -0.15300
C1233       C  0.70731371  0.85200488  0.02186410     0.05200
C1234       C  0.70661137  0.84613200  0.47248795     0.05200
C1235       C  0.74689557  0.84741410  0.45003010    -0.15300
H1236       H  0.74753375  0.84447238  0.41420990     0.07200
H1237       H  0.74711664  0.85982228  0.07978206     0.07200
C1238       C  0.87463202  0.62682013  0.38027001     0.00500
C1239       C  0.83824256  0.52473033  0.29778979     0.05200
C1240       C  0.83641313  0.97491610  0.28864635     0.05200
C1241       C  0.83170174  0.95193597  0.24723972    -0.15300
C1242       C  0.83548385  0.97439630  0.20554307     0.05200
C1243       C  0.83735501  0.52388485  0.21480467     0.05200
C1244       C  0.83407127  0.54724727  0.25616967    -0.15300
H1245       H  0.82855208  0.58420078  0.25582751     0.07200
H1246       H  0.82546809  0.91525852  0.24752954     0.07200
C1247       C  0.87118314  0.62254464  0.12866454     0.00500
C1248       C  0.78900956  0.64783413  0.48061899     0.05200
C1249       C  0.78764093  0.65040315  0.02914723     0.05200
C1250       C  0.74760147  0.65708039  0.05079961    -0.15300
C1251       C  0.70758037  0.65221192  0.02879886     0.05200
C1252       C  0.70907765  0.64889681  0.48044171     0.05200
C1253       C  0.74909200  0.64726951  0.45800693    -0.15300
H1254       H  0.74915424  0.63994276  0.42261565     0.07200
H1255       H  0.74760349  0.66596269  0.08585028     0.07200
C1256       C  0.62267182  0.87615819  0.37385813     0.00500
C1257       C  0.52199327  0.79477394  0.34198451     0.05200
C1258       C  0.97505584  0.79116712  0.33921966     0.05200
C1259       C  0.95441757  0.74813463  0.33433271    -0.15300
C1260       C  0.97527255  0.70554909  0.34251639     0.05200
C1261       C  0.52225235  0.70916493  0.34339442     0.05200
C1262       C  0.54301670  0.75174608  0.33674017    -0.15300
H1263       H  0.57696735  0.75141147  0.32834212     0.07200
H1264       H  0.92064989  0.74764339  0.32519878     0.07200
C1265       C  0.62376459  0.62901246  0.37969597     0.00500
C1266       C  0.65802863  0.52646647  0.29603611     0.05200
C1267       C  0.65499857  0.97680529  0.28866083     0.05200
C1268       C  0.65891146  0.95353979  0.24730222    -0.15300
C1269       C  0.65581481  0.97603978  0.20558149     0.05200
C1270       C  0.65698029  0.52590476  0.21298885     0.05200
C1271       C  0.66111346  0.54904657  0.25433642    -0.15300
H1272       H  0.66680322  0.58583316  0.25386501     0.07200
H1273       H  0.66467213  0.91665834  0.24771633     0.07200
C1274       C  0.62344929  0.62609351  0.12754721     0.00500
C1275       C  0.62183919  0.87378619  0.12217704     0.00500
C1276       C  0.52121378  0.79409777  0.15774958     0.05200
C1277       C  0.97285404  0.78988392  0.15796754     0.05200
C1278       C  0.95220230  0.74706297  0.16376467    -0.15300
C1279       C  0.97325170  0.70402646  0.15808591     0.05200
C1280       C  0.52133868  0.70840308  0.15809832     0.05200
C1281       C  0.54213337  0.75115758  0.16387458    -0.15300
H1282       H  0.57598707  0.75104208  0.17250438     0.07200
H1283       H  0.91834745  0.74725441  0.17246494     0.07200
C1284       C  0.55049818  0.83569231  0.15109959    -0.13500
C1285       C  0.59305991  0.83228066  0.13603923    -0.28700
H1286       H  0.53642366  0.86983274  0.15622637     0.15500
H1287       H  0.60635458  0.79850338  0.12768027     0.16100
C1288       C  0.55117194  0.66641252  0.15251648    -0.13500
C1289       C  0.59425720  0.66881133  0.13858469    -0.28700
H1290       H  0.53718138  0.63261177  0.15817937     0.15500
H1291       H  0.60793890  0.70195788  0.12967722     0.16100
C1292       C  0.65197621  0.94600545  0.16383013    -0.13500
C1293       C  0.63561150  0.90178763  0.16406571    -0.28700
H1294       H  0.65912313  0.96136023  0.13170141     0.15500
H1295       H  0.62605425  0.88673811  0.19565376     0.16100
C1296       C  0.65260724  0.55520248  0.17121799    -0.13500
C1297       C  0.63483046  0.59902326  0.17074554    -0.28700
H1298       H  0.66131657  0.53973319  0.13940499     0.15500
H1299       H  0.62395833  0.61446371  0.20191125     0.16100
C1300       C  0.65420225  0.55643101  0.33788846    -0.13500
C1301       C  0.63784596  0.60094493  0.33778446    -0.28700
H1302       H  0.66121619  0.54078699  0.36996788     0.15500
H1303       H  0.62841139  0.61627663  0.30622675     0.16100
C1304       C  0.55190845  0.66742598  0.35064362    -0.13500
C1305       C  0.59447450  0.67066643  0.36573816    -0.28700
H1306       H  0.53815433  0.63337592  0.34567319     0.15500
H1307       H  0.60739626  0.70438459  0.37400117     0.16100
C1308       C  0.65084143  0.94747897  0.33044375    -0.13500
C1309       C  0.63375668  0.90359418  0.33082487    -0.28700
H1310       H  0.65930346  0.96288528  0.36225581     0.15500
H1311       H  0.62305547  0.88830115  0.29966297     0.16100
C1312       C  0.55129033  0.83651510  0.34798968    -0.13500
C1313       C  0.59409354  0.83371764  0.36250878    -0.28700
H1314       H  0.53712617  0.87047429  0.34227146     0.15500
H1315       H  0.60798745  0.80042673  0.37141420     0.16100
C1316       C  0.66515440  0.63718748  0.10061226    -0.13500
C1317       C  0.66673157  0.65250272  0.05704319    -0.28700
H1318       H  0.69515229  0.62594689  0.11611285     0.15500
H1319       H  0.63714801  0.66316405  0.04057977     0.16100
C1320       C  0.66323634  0.64503557  0.40847815    -0.13500
C1321       C  0.66928422  0.63699604  0.45372809    -0.28700
H1322       H  0.68712341  0.66545578  0.39090419     0.15500
H1323       H  0.64599954  0.61766906  0.47273694     0.16100
C1324       C  0.90035239  0.66496850  0.13933670    -0.13500
C1325       C  0.94360912  0.66225148  0.15290826    -0.28700
H1326       H  0.88645457  0.69821176  0.13030715     0.15500
H1327       H  0.95789227  0.62836030  0.15866342     0.16100
C1328       C  0.82837493  0.64919424  0.05759044    -0.13500
C1329       C  0.82962621  0.63410232  0.10127428    -0.28700
H1330       H  0.85814606  0.65893134  0.04120189     0.15500
H1331       H  0.79942330  0.62377973  0.11668097     0.16100
C1332       C  0.84153119  0.55285852  0.17287099    -0.13500
C1333       C  0.85951710  0.59622245  0.17206515    -0.28700
H1334       H  0.83273548  0.53741806  0.14117200     0.15500
H1335       H  0.87047255  0.61167506  0.20307007     0.16100
C1336       C  0.90345638  0.66809449  0.36566743    -0.13500
C1337       C  0.94597468  0.66422895  0.35050074    -0.28700
H1338       H  0.89027737  0.70213391  0.37319813     0.15500
H1339       H  0.96001686  0.62998363  0.34613431     0.16100
C1340       C  0.83512263  0.64347194  0.40895910    -0.13500
C1341       C  0.82880239  0.63504430  0.45403859    -0.28700
H1342       H  0.81137938  0.66454572  0.39145209     0.15500
H1343       H  0.85183377  0.61481900  0.47290624     0.16100
C1344       C  0.86043164  0.59851515  0.33873717    -0.13500
C1345       C  0.84343256  0.55462442  0.33944347    -0.28700
H1346       H  0.86970395  0.61318807  0.30687950     0.15500
H1347       H  0.83659026  0.53945285  0.37173331     0.16100
C1348       C  0.66146422  0.85725286  0.09364392    -0.13500
C1349       C  0.66759541  0.86507653  0.04844226    -0.28700
H1350       H  0.68521759  0.83635769  0.11131355     0.15500
H1351       H  0.64442958  0.88492070  0.02942771     0.16100
C1352       C  0.66586625  0.84692097  0.44383405    -0.13500
C1353       C  0.66417604  0.86463635  0.40095817    -0.25700
H1354       H  0.63634230  0.83473299  0.45903295     0.15500
H1355       H  0.69352200  0.87771831  0.38603123     0.16100
C1356       C  0.85696276  0.89970446  0.16471462    -0.13500
C1357       C  0.84026226  0.94414212  0.16397154    -0.28700
H1358       H  0.86605785  0.88472800  0.19653961     0.15500
H1359       H  0.83362952  0.95952451  0.13168160     0.16100
C1360       C  0.90043830  0.82929682  0.13744102    -0.13500
C1361       C  0.94321460  0.83194044  0.15194317    -0.28700
H1362       H  0.88709674  0.79574747  0.12928779     0.15500
H1363       H  0.95727897  0.86584645  0.15687218     0.16100
C1364       C  0.82680085  0.86287701  0.04877383    -0.13500
C1365       C  0.83241931  0.85514283  0.09411569    -0.28700
H1366       H  0.85016711  0.88214107  0.02982617     0.15500
H1367       H  0.80844870  0.83474519  0.11159838     0.16100
C1368       C  0.83290198  0.85733515  0.39969584    -0.13500
C1369       C  0.82490561  0.86955117  0.44371537    -0.28700
H1370       H  0.81100504  0.83377323  0.38303467     0.15500
H1371       H  0.84635849  0.89350554  0.45986560     0.16100
C1372       C  0.85897085  0.90108278  0.32960583    -0.13500
C1373       C  0.84187410  0.94526767  0.33029605    -0.28700
H1374       H  0.86838415  0.88603449  0.29780045     0.15500
H1375       H  0.83495192  0.96074817  0.36256149     0.16100
C1376       C  0.90194343  0.83083396  0.35756554    -0.13500
C1377       C  0.94513944  0.83327507  0.34396627    -0.28700
H1378       H  0.88833939  0.79743932  0.36566940     0.15500
H1379       H  0.95937749  0.86709527  0.33908733     0.16100
N1380       N  0.54795514  0.55345697  0.58419699    -0.03200
N1381       N  0.57851438  0.55965593  0.61353244    -0.55300
N1382       N  0.95044252  0.58195351  0.55520156    -0.02800
N1383       N  0.91854910  0.61097479  0.56193970    -0.57400
N1384       N  0.95088388  0.54988947  0.58581948    -0.02400
N1385       N  0.91953638  0.55589257  0.61445656    -0.55300
N1386       N  0.54823165  0.58578820  0.55379497    -0.02100
N1387       N  0.57909643  0.61528016  0.56153137    -0.57800
C1388       C  0.59780844  0.59821632  0.59875860     0.99000
C1389       C  0.89958383  0.59413050  0.59900924     0.98800
N1390       N  0.95048160  0.54864939  0.92628795    -0.03400
N1391       N  0.92087675  0.55622356  0.89609018    -0.55900
N1392       N  0.54441462  0.58609756  0.95367068    -0.01500
N1393       N  0.57347678  0.61721653  0.94494715    -0.57100
N1394       N  0.54484185  0.55338712  0.92349548    -0.03400
N1395       N  0.57484589  0.56046155  0.89365684    -0.56100
N1396       N  0.95084476  0.58155458  0.95623182    -0.01100
N1397       N  0.92210694  0.61339032  0.94695999    -0.57200
Mn1398     Mn  0.49711781  0.58829709  0.00452239     1.18400
C1399       C  0.90305872  0.59633783  0.90997848     1.01100
C1400       C  0.59284849  0.59998452  0.90808438     1.01800
N1401       N  0.95050659  0.94588145  0.57652021    -0.03400
N1402       N  0.92037890  0.93931655  0.60630120    -0.59700
N1403       N  0.54697026  0.91876703  0.54880126    -0.02200
N1404       N  0.57824608  0.88912433  0.55597027    -0.60400
N1405       N  0.54640922  0.95086500  0.57951095    -0.02900
N1406       N  0.57721655  0.94437599  0.60864805    -0.60000
N1407       N  0.95084887  0.91311971  0.54639108    -0.01800
N1408       N  0.92112488  0.88256769  0.55489809    -0.60700
Mn1409     Mn  0.49953848  0.50292271  0.58693688     1.10700
C1410       C  0.90209499  0.90001959  0.59197912     1.02300
C1411       C  0.59689891  0.90581088  0.59328062     1.02400
N1412       N  0.54520349  0.95129781  0.91711863    -0.02900
N1413       N  0.57674515  0.94537854  0.88864322    -0.58300
N1414       N  0.94801968  0.91507561  0.94875636    -0.02200
N1415       N  0.91650880  0.88626018  0.94151713    -0.55000
N1416       N  0.94872748  0.94698969  0.91798017    -0.03500
N1417       N  0.91793554  0.94110650  0.88879934    -0.57900
N1418       N  0.54575224  0.91935748  0.94787797    -0.02500
N1419       N  0.57790648  0.89055587  0.94138691    -0.55000
Mn1420     Mn  0.99706434  0.99738002  0.91579678     1.20200
Mn1421     Mn  0.99890676  0.91091548  0.49566784     1.10100
Cl1422     Cl  0.49917260  0.50306730  0.50448189    -0.83000
C1423       C  0.59690678  0.90731765  0.90429989     0.99300
C1424       C  0.89801443  0.90311810  0.90406386     0.99100
C1425       C  0.87122303  0.87379812  0.87518346     0.00500
C1426       C  0.87353796  0.87193801  0.61991974     0.00500
C1427       C  0.78732572  0.84588297  0.97396250     0.05200
C1428       C  0.78650529  0.85594895  0.52006274     0.05200
C1429       C  0.74746271  0.84758766  0.54259709    -0.15300
C1430       C  0.70690766  0.84626023  0.52092287     0.05200
C1431       C  0.70730344  0.84696513  0.97395378     0.05200
C1432       C  0.74731694  0.84081156  0.95207668    -0.15300
H1433       H  0.74730874  0.83246793  0.91688164     0.07200
H1434       H  0.74858817  0.84481911  0.57839143     0.07200
C1435       C  0.87435942  0.62485152  0.88206971     0.00500
C1436       C  0.84104603  0.52364004  0.79736852     0.05200
C1437       C  0.83904099  0.97391583  0.78819426     0.05200
C1438       C  0.83630181  0.95072741  0.74660799    -0.15300
C1439       C  0.83917803  0.97354472  0.70489510     0.05200
C1440       C  0.84110474  0.52350035  0.71414107     0.05200
C1441       C  0.83811839  0.54654741  0.75573222    -0.15300
H1442       H  0.83303055  0.58353253  0.75559354     0.07200
H1443       H  0.83175609  0.91376547  0.74683990     0.07200
C1444       C  0.87254759  0.62377919  0.62773693     0.00500
C1445       C  0.78764894  0.64483473  0.98129781     0.05200
C1446       C  0.78900566  0.65287507  0.52857283     0.05200
C1447       C  0.74898159  0.65903997  0.55034317    -0.15300
C1448       C  0.70899429  0.65397772  0.52840643     0.05200
C1449       C  0.70773059  0.64655670  0.98091542     0.05200
C1450       C  0.74777885  0.64424464  0.95857927    -0.15300
H1451       H  0.74786777  0.63658530  0.92323147     0.07200
H1452       H  0.74895273  0.66753107  0.58547915     0.07200
C1453       C  0.62381293  0.87746588  0.87553445     0.00500
C1454       C  0.52053174  0.79678885  0.84784024     0.05200
C1455       C  0.97427625  0.79110151  0.84771670     0.05200
C1456       C  0.95367724  0.74821450  0.84218791    -0.15300
C1457       C  0.97475055  0.70534835  0.84833734     0.05200
C1458       C  0.52043635  0.71089244  0.84848375     0.05200
C1459       C  0.54127584  0.75353401  0.84237068    -0.15300
H1460       H  0.57501334  0.75294639  0.83320658     0.07200
H1461       H  0.91989338  0.74809211  0.83327175     0.07200
C1462       C  0.62172611  0.62822310  0.88058614     0.00500
C1463       C  0.65575937  0.52595505  0.79619004     0.05200
C1464       C  0.65762394  0.97714188  0.78999151     0.05200
C1465       C  0.66106868  0.95383122  0.74859985    -0.15300
C1466       C  0.65794434  0.97659036  0.70704224     0.05200
C1467       C  0.65662062  0.52554078  0.71305397     0.05200
C1468       C  0.65940526  0.54865275  0.75462230    -0.15300
H1469       H  0.66478283  0.58546525  0.75456589     0.07200
H1470       H  0.66598798  0.91678277  0.74875394     0.07200
C1471       C  0.62538134  0.62686877  0.62746361     0.00500
C1472       C  0.62450518  0.87647350  0.62150061     0.00500
C1473       C  0.52369809  0.79630649  0.65564187     0.05200
C1474       C  0.97537689  0.79057098  0.65272642     0.05200
C1475       C  0.95464798  0.74810031  0.65991504    -0.15300
C1476       C  0.97547706  0.70485018  0.65529881     0.05200
C1477       C  0.52417011  0.71060156  0.65825279     0.05200
C1478       C  0.54493770  0.75355290  0.66217420    -0.15300
H1479       H  0.57902177  0.75375009  0.66985780     0.07200
H1480       H  0.92091320  0.74880677  0.66911258     0.07200
C1481       C  0.55298613  0.83774962  0.64826568    -0.13500
C1482       C  0.59561511  0.83439042  0.63311615    -0.28700
H1483       H  0.53905843  0.87184497  0.65400829     0.15500
H1484       H  0.60910379  0.80087670  0.62413545     0.16100
C1485       C  0.55374520  0.66826398  0.65296273    -0.13500
C1486       C  0.59672138  0.67000719  0.63861613    -0.28700
H1487       H  0.53957341  0.63463775  0.65901591     0.15500
H1488       H  0.61073282  0.70288774  0.62942886     0.16100
C1489       C  0.65377971  0.94717598  0.66519427    -0.13500
C1490       C  0.63637012  0.90351195  0.66463523    -0.28700
H1491       H  0.66216928  0.96253281  0.63339103     0.15500
H1492       H  0.62582541  0.88820721  0.69579520     0.16100
C1493       C  0.65315799  0.55502785  0.67121816    -0.13500
C1494       C  0.63641631  0.59940818  0.67060059    -0.28700
H1495       H  0.66170354  0.53927088  0.63948494     0.15500
H1496       H  0.62562829  0.61514143  0.70162754     0.16100
C1497       C  0.65140322  0.55570017  0.83814491    -0.13500
C1498       C  0.63524175  0.60033525  0.83830462    -0.28700
H1499       H  0.65832210  0.53983339  0.87015173     0.15500
H1500       H  0.62587870  0.61597657  0.80685843     0.16100
C1501       C  0.54985162  0.66856936  0.85385054    -0.13500
C1502       C  0.59292859  0.67067617  0.86755574    -0.28700
H1503       H  0.53544058  0.63486658  0.84883894     0.15500
H1504       H  0.60667475  0.70399481  0.87582927     0.16100
C1505       C  0.65311935  0.94797131  0.83182429    -0.13500
C1506       C  0.63536965  0.90437881  0.83235625    -0.28700
H1507       H  0.66177722  0.96341925  0.86357916     0.15500
H1508       H  0.62442134  0.88910891  0.80127635     0.16100
C1509       C  0.55055093  0.83842059  0.85231035    -0.13500
C1510       C  0.59413124  0.83541564  0.86481437    -0.28700
H1511       H  0.53628160  0.87241890  0.84709159     0.15500
H1512       H  0.60806499  0.80205927  0.87337977     0.16100
C1513       C  0.66701340  0.63763469  0.60028264    -0.13500
C1514       C  0.66833424  0.65364669  0.55689545    -0.28700
H1515       H  0.69704623  0.62589740  0.61540934     0.15500
H1516       H  0.63870116  0.66480941  0.54080215     0.16100
C1517       C  0.66166107  0.64328610  0.90914673    -0.13500
C1518       C  0.66778720  0.63501517  0.95430087    -0.28700
H1519       H  0.68579090  0.66336004  0.89154388     0.15500
H1520       H  0.64427642  0.61603593  0.97334065     0.16100
C1521       C  0.90204951  0.66601224  0.63822253    -0.13500
C1522       C  0.94553030  0.66316281  0.65112808    -0.28700
H1523       H  0.88811830  0.69923916  0.62921513     0.15500
H1524       H  0.95976433  0.62922890  0.65679828     0.16100
C1525       C  0.82964149  0.65150210  0.55712129    -0.13500
C1526       C  0.83090910  0.63575935  0.60065256    -0.28700
H1527       H  0.85937012  0.66167387  0.54088027     0.15500
H1528       H  0.80077392  0.62512535  0.61600530     0.16100
C1529       C  0.84454540  0.55291962  0.67219393    -0.13500
C1530       C  0.86143644  0.59693784  0.67121674    -0.28700
H1531       H  0.83582435  0.53729391  0.64056380     0.15500
H1532       H  0.87235549  0.61258690  0.70211651     0.16100
C1533       C  0.90300218  0.66669073  0.86910462    -0.13500
C1534       C  0.94565797  0.66359544  0.85437970    -0.28700
H1535       H  0.88951106  0.70029270  0.87778180     0.15500
H1536       H  0.95987702  0.62958122  0.84895605     0.16100
C1537       C  0.83422108  0.64063324  0.91013922    -0.13500
C1538       C  0.82751548  0.63188955  0.95503175    -0.28700
H1539       H  0.81056214  0.66171452  0.89251114     0.15500
H1540       H  0.85047000  0.61167949  0.97402793     0.16100
C1541       C  0.86139982  0.59728267  0.83970067    -0.13500
C1542       C  0.84491629  0.55317609  0.83937720    -0.28700
H1543       H  0.87137169  0.61261279  0.80837474     0.15500
H1544       H  0.83732845  0.53759380  0.87129307     0.16100
C1545       C  0.66555313  0.86461464  0.59355247    -0.13500
C1546       C  0.66656746  0.84723209  0.55038732    -0.28700
H1547       H  0.69519070  0.87729522  0.60821887     0.15500
H1548       H  0.63673668  0.83541189  0.53554057     0.16100
C1549       C  0.66662154  0.84869312  0.94560114    -0.13500
C1550       C  0.66539772  0.86500443  0.90236109    -0.25700
H1551       H  0.63683965  0.83855984  0.96174885     0.15500
H1552       H  0.69558481  0.87561603  0.88710769     0.16100
C1553       C  0.86016043  0.89956875  0.66236611    -0.13500
C1554       C  0.84358603  0.94398542  0.66279654    -0.28700
H1555       H  0.86986456  0.88391764  0.69369336     0.15500
H1556       H  0.83625710  0.95982756  0.63087663     0.16100
C1557       C  0.90281715  0.82984691  0.63277135    -0.13500
C1558       C  0.94580692  0.83256324  0.64661979    -0.28700
H1559       H  0.88946739  0.79630745  0.62457457     0.15500
H1560       H  0.95992954  0.86643555  0.65150302     0.16100
C1561       C  0.82533237  0.86946272  0.54789267    -0.13500
C1562       C  0.83365503  0.85659784  0.59160645    -0.28700
H1563       H  0.84637441  0.89394126  0.53197686     0.15500
H1564       H  0.81214131  0.83248618  0.60794510     0.16100
C1565       C  0.82946962  0.86248696  0.90207119    -0.13500
C1566       C  0.82804794  0.84646895  0.94549053    -0.28700
H1567       H  0.79942203  0.87381469  0.88672160     0.15500
H1568       H  0.85769308  0.83555206  0.96168401     0.16100
C1569       C  0.86025643  0.90064991  0.83154077    -0.13500
C1570       C  0.84286945  0.94472816  0.83029808    -0.28700
H1571       H  0.87140228  0.88478379  0.80069879     0.15500
H1572       H  0.83386434  0.96057846  0.86184685     0.16100
C1573       C  0.90078405  0.83104477  0.86490013    -0.13500
C1574       C  0.94430188  0.83322514  0.85226538    -0.28700
H1575       H  0.88682866  0.79799383  0.87360758     0.15500
H1576       H  0.95852311  0.86695107  0.84687695     0.16100
loop_ 
_geom_bond_atom_site_label_1 
_geom_bond_atom_site_label_2 
_geom_bond_distance 
_geom_bond_site_symmetry_2 
_ccdc_geom_bond_type 
N1            N2   1.304       .  A
N1            N7   1.304       .  A
N1          Mn30   2.101   1_445  S
N2            C9   1.345       .  A
N3            N5   1.306       .  A
N3            N4   1.304       .  A
N3        Mn1004   2.123   1_554  S
N4           C10   1.350       .  A
N5            N6   1.304       .  A
N5         Mn818   2.097       .  S
N6           C10   1.342       .  A
N7            N8   1.304       .  A
N7         Mn216   2.115   1_454  S
N8            C9   1.347       .  A
C9           C92   1.467       .  S
C10          C65   1.467       .  S
N11          N17   1.307       .  A
N11          N12   1.304       .  A
N11        Mn435   2.103       .  S
N12          C20   1.342       .  A
N13          N14   1.301       .  A
N13          N15   1.305       .  A
N13         Mn19   2.106   1_455  S
N14          C21   1.346       .  A
N15          N16   1.305       .  A
N15       Mn1223   2.104   1_445  S
N16          C21   1.345       .  A
N17          N18   1.304       .  A
N17        Mn807   2.123       .  S
N18          C20   1.350       .  A
Mn19        N988   2.118       .  S
Mn19        N204   2.130   1_655  S
Mn19        N805   2.125       .  S
Mn19       Cl240   2.494   1_545  S
C20          C56   1.468       .  S
C21          C83   1.465       .  S
N22          N23   1.304       .  A
N22          N28   1.304       .  A
N22       Mn1212   2.103       .  S
N23          C31   1.345       .  A
N24          N26   1.304       .  A
N24          N25   1.304       .  A
N24        Mn830   2.118   1_455  S
N25          C32   1.347       .  A
N26          N27   1.303       .  A
N26        Mn424   2.098   1_455  S
N27          C32   1.345       .  A
N28          N29   1.304       .  A
N28         Mn42   2.118       .  S
N29          C31   1.348       .  A
Mn30        N793   2.099   1_565  S
Mn30       N1204   2.106       .  S
Mn30        N420   2.108   1_655  S
Mn30        Cl43   2.472   1_554  S
C31          C47   1.470       .  S
C32          C93   1.467       .  S
N33          N34   1.302       .  A
N33          N39   1.304       .  A
N33        Mn829   2.096   1_455  S
N34          C44   1.344       .  A
N35          N36   1.303       .  A
N35          N37   1.305       .  A
N35        Mn239   2.115       .  S
N36          C45   1.348       .  A
N37          N38   1.304       .  A
N37         Mn41   2.098       .  S
N38          C45   1.343       .  A
N39          N40   1.303       .  A
N39       Mn1027   2.107       .  S
N40          C44   1.346       .  A
Mn41        N405   2.105       .  S
Mn41       N1197   2.102       .  S
Mn41        N821   2.100       .  S
Mn41      Cl1422   2.471       .  S
Mn42        N812   2.126       .  S
Mn42        N232   2.125   1_554  S
Mn42       N1024   2.116   1_554  S
Mn42      Cl1225   2.485       .  S
Cl43       Mn216   2.488   1_565  S
Cl43      Mn1420   2.478       .  S
Cl43      Mn1224   2.490       .  S
C44          C74   1.464       .  S
C45          C46   1.465       .  S
C46         C186   1.559       .  S
C46         C190   1.546       .  S
C46         C194   1.555       .  S
C47         C174   1.557       .  S
C47         C178   1.558       .  S
C47         C183   1.557       .  S
C48          C53   1.405       .  A
C48         C246   1.439       .  A
C48         C187   1.512       .  S
C49          C50   1.414       .  A
C49         C245   1.444   1_554  A
C49         C182   1.523       .  S
C50          C51   1.414       .  A
C50          H55   1.079       .  S
C51         C249   1.448   1_554  A
C51         C167   1.530       .  S
C52          C53   1.412       .  A
C52         C248   1.450       .  A
C52         C170   1.529       .  S
C53          H54   1.073       .  S
C56         C154   1.561       .  S
C56         C158   1.565       .  S
C56         C162   1.551       .  S
C57          C62   1.414       .  A
C57         C452   1.441   1_545  A
C57         C163   1.524       .  S
C58          C59   1.417       .  A
C58         C451   1.440       .  A
C58         C191   1.520       .  S
C59          C60   1.413       .  A
C59          H64   1.078       .  S
C60         C455   1.440       .  A
C60         C175   1.523       .  S
C61          C62   1.414       .  A
C61         C454   1.441   1_545  A
C61         C150   1.524       .  S
C62          H63   1.078       .  S
C65         C142   1.562       .  S
C65         C147   1.565       .  S
C65         C151   1.551       .  S
C66          C71   1.403       .  A
C66         C264   1.444       .  A
C66         C159   1.509       .  S
C67          C68   1.406       .  A
C67         C263   1.441   1_554  A
C67         C146   1.514       .  S
C68          C69   1.415       .  A
C68          H73   1.076       .  S
C69         C267   1.447   1_554  A
C69         C135   1.523       .  S
C70          C71   1.407       .  A
C70         C266   1.444       .  A
C70         C139   1.507       .  S
C71          H72   1.079       .  S
C74         C127   1.552       .  S
C74         C131   1.560       .  S
C74         C171   1.554       .  S
C75          C80   1.404       .  A
C75         C864   1.452   1_455  A
C75         C130   1.526       .  S
C76          C77   1.409       .  A
C76         C863   1.452       .  A
C76         C195   1.520       .  S
C77          C78   1.405       .  A
C77          H82   1.078       .  S
C78         C867   1.451       .  A
C78         C155   1.529       .  S
C79          C80   1.409       .  A
C79         C866   1.453   1_455  A
C79         C122   1.525       .  S
C80          H81   1.078       .  S
C83         C119   1.552       .  S
C83         C123   1.555       .  S
C83         C138   1.562       .  S
C84          C89   1.413       .  A
C84         C479   1.441   1_545  A
C84         C118   1.524       .  S
C85          C86   1.413       .  A
C85         C478   1.443       .  A
C85         C126   1.516       .  S
C86          C87   1.409       .  A
C86          H91   1.079       .  S
C87         C482   1.442       .  A
C87         C110   1.524       .  S
C88          C89   1.413       .  A
C88         C481   1.439   1_545  A
C88         C114   1.515       .  S
C89          H90   1.078       .  S
C92         C107   1.554       .  S
C92         C115   1.551       .  S
C92         C134   1.551       .  S
C93         C103   1.567       .  S
C93         C111   1.559       .  S
C93         C166   1.563       .  S
C94          C99   1.406       .  A
C94         C883   1.460   1_455  A
C94         C102   1.536       .  S
C95          C96   1.407       .  A
C95         C882   1.454       .  A
C95         C179   1.528       .  S
C96          C97   1.407       .  A
C96         H101   1.077       .  S
C97         C886   1.453       .  A
C97         C143   1.528       .  S
C98          C99   1.408       .  A
C98         C885   1.452   1_455  A
C98         C106   1.523       .  S
C99         H100   1.077       .  S
C102        C103   1.404       .  D
C102        H104   1.084       .  S
C103        H105   1.082       .  S
C106        C107   1.394       .  D
C106        H108   1.084       .  S
C107        H109   1.084       .  S
C110        C111   1.382       .  D
C110        H112   1.083       .  S
C111        H113   1.084       .  S
C114        C115   1.376       .  D
C114        H116   1.084       .  S
C115        H117   1.085       .  S
C118        C119   1.378       .  D
C118        H120   1.084       .  S
C119        H121   1.084       .  S
C122        C123   1.393       .  D
C122        H124   1.084       .  S
C123        H125   1.082       .  S
C126        C127   1.378       .  D
C126        H128   1.084       .  S
C127        H129   1.084       .  S
C130        C131   1.397       .  D
C130        H132   1.084       .  S
C131        H133   1.084       .  S
C134        C135   1.382       .  D
C134        H136   1.082       .  S
C135        H137   1.081       .  S
C138        C139   1.386       .  D
C138        H140   1.085       .  S
C139        H141   1.077       .  S
C142        C143   1.397       .  D
C142        H144   1.083       .  S
C143        H145   1.084       .  S
C146        C147   1.383       .  D
C146        H148   1.076       .  S
C147        H149   1.084       .  S
C150        C151   1.377       .  D
C150        H152   1.084       .  S
C151        H153   1.084       .  S
C154        C155   1.396       .  D
C154        H156   1.083       .  S
C155        H157   1.085       .  S
C158        C159   1.385       .  D
C158        H160   1.086       .  S
C159        H161   1.075       .  S
C162        C163   1.378       .  D
C162        H164   1.084       .  S
C163        H165   1.084       .  S
C166        C167   1.386       .  D
C166        H168   1.083       .  S
C167        H169   1.080       .  S
C170        C171   1.386       .  D
C170        H172   1.081       .  S
C171        H173   1.080       .  S
C174        C175   1.378       .  D
C174        H176   1.084       .  S
C175        H177   1.083       .  S
C178        C179   1.397       .  D
C178        H180   1.083       .  S
C179        H181   1.084       .  S
C182        C183   1.382       .  D
C182        H184   1.081       .  S
C183        H185   1.084       .  S
C186        C187   1.384       .  D
C186        H188   1.084       .  S
C187        H189   1.077       .  S
C190        C191   1.373       .  D
C190        H192   1.083       .  S
C191        H193   1.083       .  S
C194        C195   1.393       .  D
C194        H196   1.084       .  S
C195        H197   1.084       .  S
N198        N199   1.304       .  A
N198        N204   1.305       .  A
N198       Mn227   2.095   1_445  S
N199        C206   1.343       .  A
N200        N202   1.306       .  A
N200        N201   1.303       .  A
N200       Mn807   2.121       .  S
N201        C207   1.349       .  A
N202        N203   1.305       .  A
N202      Mn1015   2.099       .  S
N203        C207   1.343       .  A
N204        N205   1.304       .  A
N205        C206   1.349       .  A
C206        C289   1.470       .  S
C207        C262   1.466       .  S
N208        N214   1.306       .  A
N208        N209   1.305       .  A
N208       Mn632   2.106       .  S
N209        C217   1.344       .  A
N210        N211   1.304       .  A
N210        N212   1.304       .  A
N210       Mn216   2.114   1_455  S
N211        C218   1.347       .  A
N212        N213   1.303       .  A
N212      Mn1420   2.102   1_445  S
N213        C218   1.344       .  A
N214        N215   1.304       .  A
N214      Mn1004   2.120       .  S
N215        C217   1.349       .  A
Mn216       N791   2.127   1_556  S
Mn216      N1002   2.119       .  S
C217        C253   1.468       .  S
C218        C280   1.467       .  S
N219        N220   1.305       .  A
N219        N225   1.306       .  A
N219      Mn1409   2.107       .  S
N220        C228   1.344       .  A
N221        N223   1.304       .  A
N221        N222   1.304       .  A
N221      Mn1027   2.119       .  S
N222        C229   1.348       .  A
N223        N224   1.303       .  A
N223       Mn621   2.099   1_455  S
N224        C229   1.344       .  A
N225        N226   1.305       .  A
N225       Mn239   2.121       .  S
N226        C228   1.349       .  A
Mn227       N990   2.097   1_565  S
Mn227      N1401   2.096       .  S
Mn227       N617   2.094   1_655  S
Mn227      Cl240   2.472       .  S
C228        C244   1.468       .  S
C229        C290   1.466       .  S
N230        N231   1.303       .  A
N230        N236   1.305       .  A
N230      Mn1026   2.100   1_455  S
N231        C241   1.343       .  A
N232        N233   1.306       .  A
N232        N234   1.304       .  A
N233        C242   1.349       .  A
N234        N235   1.304       .  A
N234       Mn238   2.104       .  S
N235        C242   1.345       .  A
N236        N237   1.305       .  A
N236       Mn830   2.124   1_456  S
N237        C241   1.349       .  A
Mn238       N602   2.103       .  S
Mn238      N1394   2.108       .  S
Mn238      N1018   2.103       .  S
Mn238     Cl1225   2.473   1_556  S
Mn239      N1009   2.108       .  S
Mn239       N827   2.123       .  S
Mn239     Cl1422   2.497       .  S
Cl240     Mn1223   2.471       .  S
Cl240     Mn1421   2.494       .  S
C241        C271   1.469       .  S
C242        C243   1.472       .  S
C243        C383   1.558       .  S
C243        C387   1.557       .  S
C243        C391   1.558       .  S
C244        C371   1.549       .  S
C244        C375   1.559       .  S
C244        C380   1.563       .  S
C245        C250   1.410       .  A
C245        C384   1.524       .  S
C246        C247   1.404       .  A
C246        C379   1.518       .  S
C247        C248   1.415       .  A
C247        H252   1.074       .  S
C248        C364   1.523       .  S
C249        C250   1.414       .  A
C249        C367   1.524       .  S
C250        H251   1.080       .  S
C253        C351   1.560       .  S
C253        C355   1.565       .  S
C253        C359   1.550       .  S
C254        C649   1.440   1_545  A
C254        C259   1.414       .  A
C254        C360   1.523       .  S
C255        C648   1.442       .  A
C255        C256   1.412       .  A
C255        C388   1.524       .  S
C256        C257   1.413       .  A
C256        H261   1.079       .  S
C257        C652   1.441       .  A
C257        C372   1.522       .  S
C258        C651   1.442   1_545  A
C258        C259   1.415       .  A
C258        C347   1.525       .  S
C259        H260   1.078       .  S
C262        C339   1.561       .  S
C262        C344   1.565       .  S
C262        C348   1.552       .  S
C263        C268   1.403       .  A
C263        C356   1.516       .  S
C264        C265   1.403       .  A
C264        C343   1.512       .  S
C265        C266   1.407       .  A
C265        H270   1.076       .  S
C266        C332   1.518       .  S
C267        C268   1.411       .  A
C267        C336   1.520       .  S
C268        H269   1.075       .  S
C271        C324   1.555       .  S
C271        C328   1.559       .  S
C271        C368   1.555       .  S
C272       C1061   1.451   1_455  A
C272        C277   1.405       .  A
C272        C327   1.527       .  S
C273       C1060   1.453       .  A
C273        C274   1.407       .  A
C273        C392   1.526       .  S
C274        C275   1.408       .  A
C274        H279   1.077       .  S
C275       C1064   1.453       .  A
C275        C352   1.528       .  S
C276       C1063   1.452   1_455  A
C276        C277   1.409       .  A
C276        C319   1.523       .  S
C277        H278   1.077       .  S
C280        C316   1.553       .  S
C280        C320   1.550       .  S
C280        C335   1.549       .  S
C281        C676   1.440   1_545  A
C281        C286   1.412       .  A
C281        C315   1.519       .  S
C282        C675   1.442       .  A
C282        C283   1.411       .  A
C282        C323   1.521       .  S
C283        C284   1.410       .  A
C283        H288   1.079       .  S
C284        C679   1.439       .  A
C284        C307   1.517       .  S
C285        C678   1.438   1_545  A
C285        C286   1.411       .  A
C285        C311   1.520       .  S
C286        H287   1.079       .  S
C289        C304   1.552       .  S
C289        C312   1.554       .  S
C289        C331   1.552       .  S
C290        C300   1.555       .  S
C290        C308   1.553       .  S
C290        C363   1.549       .  S
C291       C1080   1.453   1_455  A
C291        C296   1.407       .  A
C291        C299   1.527       .  S
C292       C1079   1.451       .  A
C292        C293   1.408       .  A
C292        C376   1.528       .  S
C293        C294   1.408       .  A
C293        H298   1.077       .  S
C294       C1083   1.453       .  A
C294        C340   1.525       .  S
C295       C1082   1.451   1_455  A
C295        C296   1.407       .  A
C295        C303   1.521       .  S
C296        H297   1.078       .  S
C299        C300   1.395       .  D
C299        H301   1.084       .  S
C300        H302   1.083       .  S
C303        C304   1.393       .  D
C303        H305   1.084       .  S
C304        H306   1.084       .  S
C307        C308   1.377       .  D
C307        H309   1.084       .  S
C308        H310   1.084       .  S
C311        C312   1.375       .  D
C311        H313   1.084       .  S
C312        H314   1.085       .  S
C315        C316   1.376       .  D
C315        H317   1.084       .  S
C316        H318   1.084       .  S
C319        C320   1.392       .  D
C319        H321   1.084       .  S
C320        H322   1.083       .  S
C323        C324   1.379       .  D
C323        H325   1.084       .  S
C324        H326   1.084       .  S
C327        C328   1.396       .  D
C327        H329   1.084       .  S
C328        H330   1.083       .  S
C331        C332   1.382       .  D
C331        H333   1.083       .  S
C332        H334   1.082       .  S
C335        C336   1.383       .  D
C335        H337   1.082       .  S
C336        H338   1.081       .  S
C339        C340   1.396       .  D
C339        H341   1.084       .  S
C340        H342   1.084       .  S
C343        C344   1.386       .  D
C343        H345   1.075       .  S
C344        H346   1.084       .  S
C347        C348   1.377       .  D
C347        H349   1.084       .  S
C348        H350   1.084       .  S
C351        C352   1.396       .  D
C351        H353   1.083       .  S
C352        H354   1.084       .  S
C355        C356   1.385       .  D
C355        H357   1.084       .  S
C356        H358   1.075       .  S
C359        C360   1.376       .  D
C359        H361   1.084       .  S
C360        H362   1.084       .  S
C363        C364   1.383       .  D
C363        H365   1.081       .  S
C364        H366   1.080       .  S
C367        C368   1.382       .  D
C367        H369   1.080       .  S
C368        H370   1.084       .  S
C371        C372   1.377       .  D
C371        H373   1.084       .  S
C372        H374   1.084       .  S
C375        C376   1.394       .  D
C375        H377   1.083       .  S
C376        H378   1.084       .  S
C379        C380   1.385       .  D
C379        H381   1.076       .  S
C380        H382   1.083       .  S
C383        C384   1.383       .  D
C383        H385   1.084       .  S
C384        H386   1.080       .  S
C387        C388   1.380       .  D
C387        H389   1.084       .  S
C388        H390   1.084       .  S
C391        C392   1.396       .  D
C391        H393   1.084       .  S
C392        H394   1.084       .  S
N395        N396   1.304       .  A
N395        N401   1.305       .  A
N395       Mn424   2.103   1_455  S
N396        C403   1.345       .  A
N397        N399   1.304       .  A
N397        N398   1.305       .  A
N397      Mn1398   2.125       .  S
N398        C404   1.349       .  A
N399        N400   1.303       .  A
N399      Mn1212   2.096       .  S
N400        C404   1.344       .  A
N401        N402   1.304       .  A
N401       Mn610   2.123   1_455  S
N402        C403   1.347       .  A
C403        C486   1.470       .  S
C404        C459   1.470       .  S
N405        N411   1.306       .  A
N405        N406   1.305       .  A
N406        C414   1.343       .  A
N407        N408   1.303       .  A
N407        N409   1.305       .  A
N407       Mn413   2.109   1_455  S
N408        C415   1.348       .  A
N409        N410   1.304       .  A
N409       Mn829   2.109   1_455  S
N410        C415   1.344       .  A
N411        N412   1.304       .  A
N411      Mn1201   2.125       .  S
N412        C414   1.350       .  A
Mn413      N1382   2.122       .  S
Mn413       N598   2.131   1_655  S
Mn413      N1199   2.119       .  S
Mn413      Cl634   2.491       .  S
C414        C450   1.468       .  S
C415        C477   1.468       .  S
N416        N417   1.305       .  A
N416        N422   1.305       .  A
N416       Mn818   2.111   1_565  S
N417        C425   1.345       .  A
N418        N420   1.305       .  A
N418        N419   1.303       .  A
N418      Mn1224   2.112   1_454  S
N419        C426   1.347       .  A
N420        N421   1.305       .  A
N421        C426   1.345       .  A
N422        N423   1.304       .  A
N422       Mn436   2.117   1_554  S
N423        C425   1.349       .  A
Mn424      N1187   2.099       .  S
Mn424       N810   2.103       .  S
Mn424      Cl437   2.484       .  S
C425        C441   1.470       .  S
C426        C487   1.468       .  S
N427        N428   1.303       .  A
N427        N433   1.304       .  A
N427      Mn1223   2.097   1_455  S
N428        C438   1.344       .  A
N429        N430   1.305       .  A
N429        N431   1.306       .  A
N429       Mn633   2.127       .  S
N430        C439   1.351       .  A
N431        N432   1.304       .  A
N431       Mn435   2.095   1_565  S
N432        C439   1.341       .  A
N433        N434   1.303       .  A
N433      Mn1421   2.110   1_455  S
N434        C438   1.346       .  A
Mn435       N803   2.100       .  S
Mn435      N1215   2.097   1_545  S
Mn435     Cl1028   2.466       .  S
Mn436      N1206   2.112   1_556  S
Mn436       N626   2.124       .  S
Mn436      N1418   2.127       .  S
Mn436      Cl831   2.491   1_565  S
Cl437      Mn610   2.488       .  S
Cl437     Mn1026   2.471   1_554  S
Cl437      Mn830   2.488       .  S
C438        C468   1.463       .  S
C439        C440   1.466       .  S
C440        C580   1.560       .  S
C440        C584   1.552       .  S
C440        C588   1.557       .  S
C441        C568   1.551       .  S
C441        C572   1.554       .  S
C441        C577   1.563       .  S
C442        C640   1.441       .  A
C442        C447   1.406       .  A
C442        C581   1.513       .  S
C443        C639   1.442   1_554  A
C443        C444   1.409       .  A
C443        C576   1.507       .  S
C444        C445   1.408       .  A
C444        H449   1.081       .  S
C445        C643   1.442   1_554  A
C445        C561   1.508       .  S
C446        C642   1.451       .  A
C446        C447   1.412       .  A
C446        C564   1.532       .  S
C447        H448   1.069       .  S
C450        C548   1.559       .  S
C450        C552   1.566       .  S
C450        C556   1.549       .  S
C451        C456   1.411       .  A
C451        C557   1.523       .  S
C452        C453   1.415       .  A
C452        C585   1.524       .  S
C453        C454   1.415       .  A
C453        H458   1.078       .  S
C454        C569   1.524       .  S
C455        C456   1.411       .  A
C455        C544   1.517       .  S
C456        H457   1.079       .  S
C459        C536   1.560       .  S
C459        C541   1.556       .  S
C459        C545   1.552       .  S
C460        C658   1.445       .  A
C460        C465   1.404       .  A
C460        C553   1.511       .  S
C461        C657   1.442   1_554  A
C461        C462   1.409       .  A
C461        C540   1.519       .  S
C462        C463   1.408       .  A
C462        H467   1.081       .  S
C463        C661   1.442   1_554  A
C463        C529   1.517       .  S
C464        C660   1.445       .  A
C464        C465   1.408       .  A
C464        C533   1.509       .  S
C465        H466   1.080       .  S
C468        C521   1.553       .  S
C468        C525   1.560       .  S
C468        C565   1.557       .  S
C469       C1258   1.456   1_455  A
C469        C474   1.406       .  A
C469        C524   1.529       .  S
C470       C1257   1.451       .  A
C470        C471   1.407       .  A
C470        C589   1.524       .  S
C471        C472   1.406       .  A
C471        H476   1.078       .  S
C472       C1261   1.451       .  A
C472        C549   1.524       .  S
C473       C1260   1.448   1_455  A
C473        C474   1.407       .  A
C473        C516   1.522       .  S
C474        H475   1.079       .  S
C477        C513   1.555       .  S
C477        C517   1.554       .  S
C477        C532   1.564       .  S
C478        C483   1.412       .  A
C478        C512   1.527       .  S
C479        C480   1.411       .  A
C479        C520   1.516       .  S
C480        C481   1.409       .  A
C480        H485   1.079       .  S
C481        C504   1.521       .  S
C482        C483   1.413       .  A
C482        C508   1.517       .  S
C483        H484   1.079       .  S
C486        C501   1.561       .  S
C486        C509   1.552       .  S
C486        C528   1.556       .  S
C487        C497   1.559       .  S
C487        C505   1.549       .  S
C487        C560   1.564       .  S
C488       C1277   1.451   1_455  A
C488        C493   1.407       .  A
C488        C496   1.526       .  S
C489       C1276   1.448       .  A
C489        C490   1.407       .  A
C489        C573   1.522       .  S
C490        C491   1.406       .  A
C490        H495   1.077       .  S
C491       C1280   1.455       .  A
C491        C537   1.529       .  S
C492       C1279   1.456   1_455  A
C492        C493   1.408       .  A
C492        C500   1.530       .  S
C493        H494   1.077       .  S
C496        C497   1.395       .  D
C496        H498   1.084       .  S
C497        H499   1.083       .  S
C500        C501   1.398       .  D
C500        H502   1.084       .  S
C501        H503   1.083       .  S
C504        C505   1.377       .  D
C504        H506   1.084       .  S
C505        H507   1.084       .  S
C508        C509   1.378       .  D
C508        H510   1.084       .  S
C509        H511   1.085       .  S
C512        C513   1.379       .  D
C512        H514   1.083       .  S
C513        H515   1.083       .  S
C516        C517   1.391       .  D
C516        H518   1.084       .  S
C517        H519   1.084       .  S
C520        C521   1.379       .  D
C520        H522   1.084       .  S
C521        H523   1.084       .  S
C524        C525   1.399       .  D
C524        H526   1.084       .  S
C525        H527   1.083       .  S
C528        C529   1.379       .  D
C528        H530   1.085       .  S
C529        H531   1.082       .  S
C532        C533   1.387       .  D
C532        H534   1.084       .  S
C533        H535   1.076       .  S
C536        C537   1.398       .  D
C536        H538   1.083       .  S
C537        H539   1.084       .  S
C540        C541   1.379       .  D
C540        H542   1.082       .  S
C541        H543   1.084       .  S
C544        C545   1.377       .  D
C544        H546   1.084       .  S
C545        H547   1.085       .  S
C548        C549   1.395       .  D
C548        H550   1.083       .  S
C549        H551   1.084       .  S
C552        C553   1.385       .  D
C552        H554   1.085       .  S
C553        H555   1.075       .  S
C556        C557   1.376       .  D
C556        H558   1.084       .  S
C557        H559   1.084       .  S
C560        C561   1.384       .  D
C560        H562   1.085       .  S
C561        H563   1.077       .  S
C564        C565   1.388       .  D
C564        H566   1.080       .  S
C565        H567   1.079       .  S
C568        C569   1.376       .  D
C568        H570   1.084       .  S
C569        H571   1.083       .  S
C572        C573   1.391       .  D
C572        H574   1.083       .  S
C573        H575   1.084       .  S
C576        C577   1.384       .  D
C576        H578   1.077       .  S
C577        H579   1.085       .  S
C580        C581   1.385       .  D
C580        H582   1.084       .  S
C581        H583   1.077       .  S
C584        C585   1.377       .  D
C584        H586   1.084       .  S
C585        H587   1.084       .  S
C588        C589   1.393       .  D
C588        H590   1.084       .  S
C589        H591   1.085       .  S
N592        N593   1.305       .  A
N592        N598   1.305       .  A
N592       Mn621   2.096   1_455  S
N593        C600   1.343       .  A
N594        N596   1.306       .  A
N594        N595   1.303       .  A
N594      Mn1201   2.120       .  S
N595        C601   1.349       .  A
N596        N597   1.305       .  A
N596      Mn1409   2.099       .  S
N597        C601   1.342       .  A
N598        N599   1.304       .  A
N599        C600   1.350       .  A
C600        C683   1.470       .  S
C601        C656   1.467       .  S
N602        N608   1.305       .  A
N602        N603   1.305       .  A
N603        C611   1.344       .  A
N604        N605   1.302       .  A
N604        N606   1.305       .  A
N604       Mn610   2.112   1_456  S
N605        C612   1.348       .  A
N606        N607   1.306       .  A
N606      Mn1026   2.107   1_455  S
N607        C612   1.344       .  A
N608        N609   1.301       .  A
N608      Mn1398   2.108   1_556  S
N609        C611   1.347       .  A
Mn610      N1185   2.126       .  S
Mn610      N1396   2.112   1_554  S
C611        C647   1.465       .  S
C612        C674   1.468       .  S
N613        N614   1.305       .  A
N613        N619   1.306       .  A
N613      Mn1015   2.101   1_565  S
N614        C622   1.343       .  A
N615        N617   1.304       .  A
N615        N616   1.305       .  A
N615      Mn1421   2.125   1_455  S
N616        C623   1.349       .  A
N617        N618   1.303       .  A
N618        C623   1.342       .  A
N619        N620   1.304       .  A
N619       Mn633   2.124       .  S
N620        C622   1.349       .  A
Mn621      N1384   2.092       .  S
Mn621      N1007   2.102       .  S
Mn621      Cl634   2.477       .  S
C622        C638   1.466       .  S
C623        C684   1.468       .  S
N624        N625   1.303       .  A
N624        N630   1.304       .  A
N624      Mn1420   2.095   1_455  S
N625        C635   1.343       .  A
N626        N627   1.303       .  A
N626        N628   1.305       .  A
N627        C636   1.348       .  A
N628        N629   1.304       .  A
N628       Mn632   2.096   1_565  S
N629        C636   1.344       .  A
N630        N631   1.305       .  A
N630      Mn1224   2.124   1_455  S
N631        C635   1.349       .  A
Mn632      N1000   2.102       .  S
Mn632      N1412   2.098   1_545  S
Mn632      Cl831   2.478       .  S
Mn633      N1403   2.118       .  S
Mn633      N1221   2.115       .  S
Mn633     Cl1028   2.494   1_565  S
Cl634      Mn829   2.469       .  S
Cl634     Mn1027   2.489   1_655  S
C635        C665   1.470       .  S
C636        C637   1.469       .  S
C637        C777   1.558       .  S
C637        C781   1.556       .  S
C637        C785   1.560       .  S
C638        C765   1.552       .  S
C638        C769   1.564       .  S
C638        C774   1.569       .  S
C639        C644   1.406       .  A
C639        C778   1.519       .  S
C640        C641   1.404       .  A
C640        C773   1.521       .  S
C641        C642   1.417       .  A
C641        H646   1.073       .  S
C642        C758   1.523       .  S
C643        C644   1.408       .  A
C643        C761   1.519       .  S
C644        H645   1.081       .  S
C647        C745   1.557       .  S
C647        C749   1.563       .  S
C647        C753   1.553       .  S
C648        C653   1.416       .  A
C648        C754   1.525       .  S
C649        C650   1.414       .  A
C649        C782   1.523       .  S
C650        C651   1.416       .  A
C650        H655   1.078       .  S
C651        C766   1.525       .  S
C652        C653   1.415       .  A
C652        C741   1.526       .  S
C653        H654   1.078       .  S
C656        C733   1.558       .  S
C656        C738   1.566       .  S
C656        C742   1.553       .  S
C657        C662   1.404       .  A
C657        C750   1.504       .  S
C658        C659   1.405       .  A
C658        C737   1.514       .  S
C659        C660   1.408       .  A
C659        H664   1.077       .  S
C660        C726   1.521       .  S
C661        C662   1.405       .  A
C661        C730   1.505       .  S
C662        H663   1.081       .  S
C665        C718   1.554       .  S
C665        C722   1.557       .  S
C665        C762   1.555       .  S
C666       C1455   1.456   1_455  A
C666        C671   1.406       .  A
C666        C721   1.526       .  S
C667       C1454   1.458       .  A
C667        C668   1.407       .  A
C667        C786   1.530       .  S
C668        C669   1.406       .  A
C668        H673   1.078       .  S
C669       C1458   1.450       .  A
C669        C746   1.524       .  S
C670       C1457   1.447   1_455  A
C670        C671   1.405       .  A
C670        C713   1.522       .  S
C671        H672   1.078       .  S
C674        C710   1.552       .  S
C674        C714   1.553       .  S
C674        C729   1.561       .  S
C675        C680   1.417       .  A
C675        C709   1.524       .  S
C676        C677   1.413       .  A
C676        C717   1.520       .  S
C677        C678   1.413       .  A
C677        H682   1.079       .  S
C678        C701   1.518       .  S
C679        C680   1.414       .  A
C679        C705   1.521       .  S
C680        H681   1.079       .  S
C683        C698   1.556       .  S
C683        C706   1.556       .  S
C683        C725   1.555       .  S
C684        C694   1.552       .  S
C684        C702   1.554       .  S
C684        C757   1.550       .  S
C685       C1474   1.449   1_455  A
C685        C690   1.404       .  A
C685        C693   1.521       .  S
C686       C1473   1.453       .  A
C686        C687   1.405       .  A
C686        C770   1.528       .  S
C687        C688   1.408       .  A
C687        H692   1.079       .  S
C688       C1477   1.453       .  A
C688        C734   1.525       .  S
C689       C1476   1.457   1_455  A
C689        C690   1.407       .  A
C689        C697   1.527       .  S
C690        H691   1.078       .  S
C693        C694   1.393       .  D
C693        H695   1.084       .  S
C694        H696   1.084       .  S
C697        C698   1.398       .  D
C697        H699   1.084       .  S
C698        H700   1.083       .  S
C701        C702   1.374       .  D
C701        H703   1.084       .  S
C702        H704   1.085       .  S
C705        C706   1.376       .  D
C705        H707   1.084       .  S
C706        H708   1.084       .  S
C709        C710   1.376       .  D
C709        H711   1.084       .  S
C710        H712   1.084       .  S
C713        C714   1.391       .  D
C713        H715   1.084       .  S
C714        H716   1.084       .  S
C717        C718   1.376       .  D
C717        H719   1.084       .  S
C718        H720   1.084       .  S
C721        C722   1.398       .  D
C721        H723   1.084       .  S
C722        H724   1.083       .  S
C725        C726   1.382       .  D
C725        H727   1.083       .  S
C726        H728   1.082       .  S
C729        C730   1.385       .  D
C729        H731   1.085       .  S
C730        H732   1.077       .  S
C733        C734   1.395       .  D
C733        H735   1.083       .  S
C734        H736   1.084       .  S
C737        C738   1.386       .  D
C737        H739   1.074       .  S
C738        H740   1.084       .  S
C741        C742   1.377       .  D
C741        H743   1.084       .  S
C742        H744   1.084       .  S
C745        C746   1.394       .  D
C745        H747   1.084       .  S
C746        H748   1.084       .  S
C749        C750   1.387       .  D
C749        H751   1.085       .  S
C750        H752   1.077       .  S
C753        C754   1.377       .  D
C753        H755   1.083       .  S
C754        H756   1.083       .  S
C757        C758   1.384       .  D
C757        H759   1.080       .  S
C758        H760   1.080       .  S
C761        C762   1.380       .  D
C761        H763   1.081       .  S
C762        H764   1.084       .  S
C765        C766   1.377       .  D
C765        H767   1.084       .  S
C766        H768   1.084       .  S
C769        C770   1.398       .  D
C769        H771   1.084       .  S
C770        H772   1.084       .  S
C773        C774   1.388       .  D
C773        H775   1.077       .  S
C774        H776   1.083       .  S
C777        C778   1.382       .  D
C777        H779   1.085       .  S
C778        H780   1.081       .  S
C781        C782   1.378       .  D
C781        H783   1.084       .  S
C782        H784   1.083       .  S
C785        C786   1.400       .  D
C785        H787   1.083       .  S
C786        H788   1.084       .  S
N789        N790   1.304       .  A
N789        N795   1.305       .  A
N789       Mn818   2.102       .  S
N790        C797   1.344       .  A
N791        N793   1.305       .  A
N791        N792   1.304       .  A
N792        C798   1.349       .  A
N793        N794   1.303       .  A
N794        C798   1.343       .  A
N795        N796   1.304       .  A
N795      Mn1004   2.123   1_554  S
N796        C797   1.349       .  A
C797        C880   1.471       .  S
C798        C853   1.469       .  S
N799        N805   1.307       .  A
N799        N800   1.305       .  A
N799      Mn1223   2.102   1_545  S
N800        C808   1.342       .  A
N801        N802   1.302       .  A
N801        N803   1.304       .  A
N801       Mn807   2.110       .  S
N802        C809   1.348       .  A
N803        N804   1.305       .  A
N804        C809   1.344       .  A
N805        N806   1.304       .  A
N806        C808   1.349       .  A
Mn807       N992   2.124       .  S
Mn807     Cl1028   2.496       .  S
C808        C844   1.467       .  S
C809        C871   1.467       .  S
N810        N811   1.305       .  A
N810        N816   1.305       .  A
N811        C819   1.345       .  A
N812        N814   1.304       .  A
N812        N813   1.305       .  A
N813        C820   1.349       .  A
N814        N815   1.304       .  A
N814      Mn1212   2.097       .  S
N815        C820   1.344       .  A
N816        N817   1.305       .  A
N816       Mn830   2.134       .  S
N817        C819   1.350       .  A
Mn818      N1208   2.104   1_545  S
Mn818      Cl831   2.472   1_554  S
C819        C835   1.472       .  S
C820        C881   1.470       .  S
N821        N822   1.303       .  A
N821        N827   1.305       .  A
N822        C832   1.344       .  A
N823        N824   1.305       .  A
N823        N825   1.305       .  A
N823      Mn1027   2.129   1_655  S
N824        C833   1.349       .  A
N825        N826   1.304       .  A
N825       Mn829   2.102       .  S
N826        C833   1.344       .  A
N827        N828   1.304       .  A
N828        C832   1.348       .  A
Mn829      N1193   2.104       .  S
Mn830      N1020   2.120   1_554  S
Cl831     Mn1004   2.491       .  S
C832        C862   1.470       .  S
C833        C834   1.472       .  S
C834        C974   1.553       .  S
C834        C978   1.550       .  S
C834        C982   1.555       .  S
C835        C962   1.555       .  S
C835        C966   1.559       .  S
C835        C971   1.561       .  S
C836       C1034   1.441       .  A
C836        C841   1.410       .  A
C836        C975   1.518       .  S
C837       C1033   1.440   1_554  A
C837        C838   1.407       .  A
C837        C970   1.524       .  S
C838        C839   1.413       .  A
C838        H843   1.079       .  S
C839       C1037   1.448   1_554  A
C839        C955   1.521       .  S
C840       C1036   1.443       .  A
C840        C841   1.408       .  A
C840        C958   1.522       .  S
C841        H842   1.080       .  S
C844        C942   1.559       .  S
C844        C946   1.564       .  S
C844        C950   1.550       .  S
C845       C1240   1.440   1_545  A
C845        C850   1.414       .  A
C845        C951   1.522       .  S
C846       C1239   1.440       .  A
C846        C847   1.415       .  A
C846        C979   1.516       .  S
C847        C848   1.411       .  A
C847        H852   1.080       .  S
C848       C1243   1.438       .  A
C848        C963   1.521       .  S
C849       C1242   1.443   1_545  A
C849        C850   1.414       .  A
C849        C938   1.522       .  S
C850        H851   1.078       .  S
C853        C930   1.562       .  S
C853        C935   1.557       .  S
C853        C939   1.557       .  S
C854       C1052   1.444       .  A
C854        C859   1.404       .  A
C854        C947   1.510       .  S
C855       C1051   1.444   1_554  A
C855        C856   1.407       .  A
C855        C934   1.518       .  S
C856        C857   1.406       .  A
C856        H861   1.080       .  S
C857       C1055   1.440   1_554  A
C857        C923   1.517       .  S
C858       C1054   1.445       .  A
C858        C859   1.407       .  A
C858        C927   1.507       .  S
C859        H860   1.080       .  S
C862        C915   1.554       .  S
C862        C919   1.563       .  S
C862        C959   1.560       .  S
C863        C868   1.403       .  A
C863        C918   1.529       .  S
C864        C865   1.407       .  A
C864        C983   1.522       .  S
C865        C866   1.407       .  A
C865        H870   1.078       .  S
C866        C943   1.528       .  S
C867        C868   1.409       .  A
C867        C910   1.521       .  S
C868        H869   1.077       .  S
C871        C907   1.553       .  S
C871        C911   1.550       .  S
C871        C926   1.563       .  S
C872       C1267   1.440   1_545  A
C872        C877   1.414       .  A
C872        C906   1.525       .  S
C873       C1266   1.442       .  A
C873        C874   1.415       .  A
C873        C914   1.520       .  S
C874        C875   1.412       .  A
C874        H879   1.078       .  S
C875       C1270   1.439       .  A
C875        C898   1.522       .  S
C876       C1269   1.441   1_545  A
C876        C877   1.415       .  A
C876        C902   1.520       .  S
C877        H878   1.078       .  S
C880        C895   1.557       .  S
C880        C903   1.554       .  S
C880        C922   1.554       .  S
C881        C891   1.556       .  S
C881        C899   1.557       .  S
C881        C954   1.553       .  S
C882        C887   1.407       .  A
C882        C890   1.527       .  S
C883        C884   1.410       .  A
C883        C967   1.528       .  S
C884        C885   1.405       .  A
C884        H889   1.077       .  S
C885        C931   1.530       .  S
C886        C887   1.406       .  A
C886        C894   1.526       .  S
C887        H888   1.077       .  S
C890        C891   1.396       .  D
C890        H892   1.084       .  S
C891        H893   1.083       .  S
C894        C895   1.396       .  D
C894        H896   1.084       .  S
C895        H897   1.084       .  S
C898        C899   1.377       .  D
C898        H900   1.084       .  S
C899        H901   1.084       .  S
C902        C903   1.377       .  D
C902        H904   1.084       .  S
C903        H905   1.084       .  S
C906        C907   1.376       .  D
C906        H908   1.083       .  S
C907        H909   1.084       .  S
C910        C911   1.391       .  D
C910        H912   1.085       .  S
C911        H913   1.083       .  S
C914        C915   1.378       .  D
C914        H916   1.084       .  S
C915        H917   1.084       .  S
C918        C919   1.399       .  D
C918        H920   1.084       .  S
C919        H921   1.084       .  S
C922        C923   1.379       .  D
C922        H924   1.085       .  S
C923        H925   1.082       .  S
C926        C927   1.387       .  D
C926        H928   1.085       .  S
C927        H929   1.076       .  S
C930        C931   1.398       .  D
C930        H932   1.084       .  S
C931        H933   1.084       .  S
C934        C935   1.382       .  D
C934        H936   1.081       .  S
C935        H937   1.084       .  S
C938        C939   1.380       .  D
C938        H940   1.084       .  S
C939        H941   1.084       .  S
C942        C943   1.396       .  D
C942        H944   1.082       .  S
C943        H945   1.084       .  S
C946        C947   1.385       .  D
C946        H948   1.085       .  S
C947        H949   1.076       .  S
C950        C951   1.376       .  D
C950        H952   1.084       .  S
C951        H953   1.084       .  S
C954        C955   1.382       .  D
C954        H956   1.084       .  S
C955        H957   1.081       .  S
C958        C959   1.382       .  D
C958        H960   1.082       .  S
C959        H961   1.085       .  S
C962        C963   1.376       .  D
C962        H964   1.084       .  S
C963        H965   1.083       .  S
C966        C967   1.400       .  D
C966        H968   1.083       .  S
C967        H969   1.084       .  S
C970        C971   1.381       .  D
C970        H972   1.082       .  S
C971        H973   1.085       .  S
C974        C975   1.378       .  D
C974        H976   1.085       .  S
C975        H977   1.082       .  S
C978        C979   1.374       .  D
C978        H980   1.085       .  S
C979        H981   1.084       .  S
C982        C983   1.394       .  D
C982        H984   1.084       .  S
C983        H985   1.084       .  S
N986        N987   1.304       .  A
N986        N992   1.305       .  A
N986      Mn1015   2.098       .  S
N987        C994   1.343       .  A
N988        N990   1.305       .  A
N988        N989   1.303       .  A
N989        C995   1.348       .  A
N990        N991   1.304       .  A
N991        C995   1.343       .  A
N992        N993   1.304       .  A
N993        C994   1.348       .  A
C994       C1077   1.468       .  S
C995       C1050   1.465       .  S
N996       N1002   1.305       .  A
N996        N997   1.305       .  A
N996      Mn1420   2.099   1_545  S
N997       C1005   1.344       .  A
N998        N999   1.302       .  A
N998       N1000   1.304       .  A
N998      Mn1004   2.113       .  S
N999       C1006   1.348       .  A
N1000      N1001   1.305       .  A
N1001      C1006   1.345       .  A
N1002      N1003   1.303       .  A
N1003      C1005   1.348       .  A
C1005      C1041   1.467       .  S
C1006      C1068   1.467       .  S
N1007      N1008   1.304       .  A
N1007      N1013   1.304       .  A
N1008      C1016   1.344       .  A
N1009      N1011   1.304       .  A
N1009      N1010   1.303       .  A
N1010      C1017   1.347       .  A
N1011      N1012   1.304       .  A
N1011     Mn1409   2.104       .  S
N1012      C1017   1.344       .  A
N1013      N1014   1.303       .  A
N1013     Mn1027   2.110   1_655  S
N1014      C1016   1.348       .  A
Mn1015     N1405   2.100   1_545  S
Mn1015    Cl1028   2.474       .  S
C1016      C1032   1.468       .  S
C1017      C1078   1.468       .  S
N1018      N1019   1.303       .  A
N1018      N1024   1.304       .  A
N1019      C1029   1.345       .  A
N1020      N1021   1.304       .  A
N1020      N1022   1.305       .  A
N1021      C1030   1.350       .  A
N1022      N1023   1.304       .  A
N1022     Mn1026   2.102       .  S
N1023      C1030   1.343       .  A
N1024      N1025   1.305       .  A
N1025      C1029   1.347       .  A
Mn1026     N1390   2.103       .  S
C1029      C1059   1.468       .  S
C1030      C1031   1.470       .  S
C1031      C1171   1.564       .  S
C1031      C1175   1.554       .  S
C1031      C1179   1.556       .  S
C1032      C1159   1.553       .  S
C1032      C1163   1.557       .  S
C1032      C1168   1.564       .  S
C1033      C1038   1.410       .  A
C1033      C1172   1.513       .  S
C1034      C1035   1.406       .  A
C1034      C1167   1.509       .  S
C1035      C1036   1.408       .  A
C1035      H1040   1.080       .  S
C1036      C1152   1.507       .  S
C1037      C1038   1.416       .  A
C1037      C1155   1.529       .  S
C1038      H1039   1.074       .  S
C1041      C1139   1.561       .  S
C1041      C1143   1.566       .  S
C1041      C1147   1.556       .  S
C1042      C1437   1.442   1_545  A
C1042      C1047   1.413       .  A
C1042      C1148   1.527       .  S
C1043      C1436   1.441       .  A
C1043      C1044   1.415       .  A
C1043      C1176   1.525       .  S
C1044      C1045   1.414       .  A
C1044      H1049   1.078       .  S
C1045      C1440   1.441       .  A
C1045      C1160   1.525       .  S
C1046      C1439   1.442   1_545  A
C1046      C1047   1.415       .  A
C1046      C1135   1.524       .  S
C1047      H1048   1.078       .  S
C1050      C1127   1.562       .  S
C1050      C1132   1.566       .  S
C1050      C1136   1.551       .  S
C1051      C1056   1.407       .  A
C1051      C1144   1.508       .  S
C1052      C1053   1.405       .  A
C1052      C1131   1.515       .  S
C1053      C1054   1.410       .  A
C1053      H1058   1.075       .  S
C1054      C1120   1.523       .  S
C1055      C1056   1.407       .  A
C1055      C1124   1.504       .  S
C1056      H1057   1.081       .  S
C1059      C1112   1.553       .  S
C1059      C1116   1.561       .  S
C1059      C1156   1.558       .  S
C1060      C1065   1.405       .  A
C1060      C1115   1.528       .  S
C1061      C1062   1.408       .  A
C1061      C1180   1.522       .  S
C1062      C1063   1.406       .  A
C1062      H1067   1.078       .  S
C1063      C1140   1.529       .  S
C1064      C1065   1.408       .  A
C1064      C1107   1.526       .  S
C1065      H1066   1.078       .  S
C1068      C1104   1.549       .  S
C1068      C1108   1.556       .  S
C1068      C1123   1.561       .  S
C1069      C1464   1.441   1_545  A
C1069      C1074   1.412       .  A
C1069      C1103   1.521       .  S
C1070      C1463   1.441       .  A
C1070      C1071   1.412       .  A
C1070      C1111   1.517       .  S
C1071      C1072   1.412       .  A
C1071      H1076   1.078       .  S
C1072      C1467   1.442       .  A
C1072      C1095   1.524       .  S
C1073      C1466   1.438   1_545  A
C1073      C1074   1.411       .  A
C1073      C1099   1.516       .  S
C1074      H1075   1.080       .  S
C1077      C1092   1.558       .  S
C1077      C1100   1.552       .  S
C1077      C1119   1.555       .  S
C1078      C1088   1.555       .  S
C1078      C1096   1.552       .  S
C1078      C1151   1.563       .  S
C1079      C1084   1.408       .  A
C1079      C1087   1.524       .  S
C1080      C1081   1.408       .  A
C1080      C1164   1.525       .  S
C1081      C1082   1.405       .  A
C1081      H1086   1.079       .  S
C1082      C1128   1.527       .  S
C1083      C1084   1.405       .  A
C1083      C1091   1.526       .  S
C1084      H1085   1.077       .  S
C1087      C1088   1.393       .  D
C1087      H1089   1.085       .  S
C1088      H1090   1.083       .  S
C1091      C1092   1.397       .  D
C1091      H1093   1.084       .  S
C1092      H1094   1.083       .  S
C1095      C1096   1.378       .  D
C1095      H1097   1.084       .  S
C1096      H1098   1.084       .  S
C1099      C1100   1.375       .  D
C1099      H1101   1.083       .  S
C1100      H1102   1.084       .  S
C1103      C1104   1.376       .  D
C1103      H1105   1.084       .  S
C1104      H1106   1.084       .  S
C1107      C1108   1.395       .  D
C1107      H1109   1.084       .  S
C1108      H1110   1.082       .  S
C1111      C1112   1.378       .  D
C1111      H1113   1.084       .  S
C1112      H1114   1.085       .  S
C1115      C1116   1.398       .  D
C1115      H1117   1.084       .  S
C1116      H1118   1.083       .  S
C1119      C1120   1.382       .  D
C1119      H1121   1.083       .  S
C1120      H1122   1.082       .  S
C1123      C1124   1.383       .  D
C1123      H1125   1.085       .  S
C1124      H1126   1.077       .  S
C1127      C1128   1.396       .  D
C1127      H1129   1.083       .  S
C1128      H1130   1.083       .  S
C1131      C1132   1.387       .  D
C1131      H1133   1.075       .  S
C1132      H1134   1.083       .  S
C1135      C1136   1.377       .  D
C1135      H1137   1.084       .  S
C1136      H1138   1.084       .  S
C1139      C1140   1.396       .  D
C1139      H1141   1.083       .  S
C1140      H1142   1.085       .  S
C1143      C1144   1.387       .  D
C1143      H1145   1.085       .  S
C1144      H1146   1.077       .  S
C1147      C1148   1.378       .  D
C1147      H1149   1.084       .  S
C1148      H1150   1.084       .  S
C1151      C1152   1.385       .  D
C1151      H1153   1.086       .  S
C1152      H1154   1.078       .  S
C1155      C1156   1.383       .  D
C1155      H1157   1.081       .  S
C1156      H1158   1.081       .  S
C1159      C1160   1.377       .  D
C1159      H1161   1.084       .  S
C1160      H1162   1.084       .  S
C1163      C1164   1.394       .  D
C1163      H1165   1.083       .  S
C1164      H1166   1.084       .  S
C1167      C1168   1.385       .  D
C1167      H1169   1.077       .  S
C1168      H1170   1.085       .  S
C1171      C1172   1.386       .  D
C1171      H1173   1.084       .  S
C1172      H1174   1.078       .  S
C1175      C1176   1.376       .  D
C1175      H1177   1.084       .  S
C1176      H1178   1.084       .  S
C1179      C1180   1.393       .  D
C1179      H1181   1.083       .  S
C1180      H1182   1.084       .  S
N1183      N1184   1.304       .  A
N1183      N1189   1.305       .  A
N1183     Mn1212   2.101       .  S
N1184      C1191   1.344       .  A
N1185      N1187   1.305       .  A
N1185      N1186   1.304       .  A
N1186      C1192   1.348       .  A
N1187      N1188   1.305       .  A
N1188      C1192   1.345       .  A
N1189      N1190   1.305       .  A
N1189     Mn1398   2.126       .  S
N1190      C1191   1.349       .  A
C1191      C1274   1.471       .  S
C1192      C1247   1.470       .  S
N1193      N1199   1.305       .  A
N1193      N1194   1.305       .  A
N1194      C1202   1.343       .  A
N1195      N1196   1.302       .  A
N1195      N1197   1.304       .  A
N1195     Mn1201   2.109       .  S
N1196      C1203   1.347       .  A
N1197      N1198   1.305       .  A
N1198      C1203   1.344       .  A
N1199      N1200   1.304       .  A
N1200      C1202   1.349       .  A
Mn1201     N1386   2.124       .  S
Mn1201    Cl1422   2.497       .  S
C1202      C1238   1.468       .  S
C1203      C1265   1.466       .  S
N1204      N1205   1.305       .  A
N1204      N1210   1.305       .  A
N1205      C1213   1.344       .  A
N1206      N1208   1.304       .  A
N1206      N1207   1.303       .  A
N1207      C1214   1.348       .  A
N1208      N1209   1.304       .  A
N1209      C1214   1.344       .  A
N1210      N1211   1.302       .  A
N1210     Mn1224   2.110   1_554  S
N1211      C1213   1.347       .  A
Mn1212    Cl1225   2.480       .  S
C1213      C1229   1.466       .  S
C1214      C1275   1.468       .  S
N1215      N1216   1.303       .  A
N1215      N1221   1.304       .  A
N1216      C1226   1.343       .  A
N1217      N1218   1.305       .  A
N1217      N1219   1.306       .  A
N1217     Mn1421   2.131       .  S
N1218      C1227   1.351       .  A
N1219      N1220   1.305       .  A
N1219     Mn1223   2.101       .  S
N1220      C1227   1.342       .  A
N1221      N1222   1.304       .  A
N1222      C1226   1.348       .  A
Mn1224     N1414   2.129       .  S
Cl1225    Mn1398   2.488       .  S
C1226      C1256   1.466       .  S
C1227      C1228   1.468       .  S
C1228      C1368   1.565       .  S
C1228      C1372   1.551       .  S
C1228      C1376   1.560       .  S
C1229      C1356   1.553       .  S
C1229      C1360   1.558       .  S
C1229      C1365   1.564       .  S
C1230      C1428   1.441       .  A
C1230      C1235   1.405       .  A
C1230      C1369   1.517       .  S
C1231      C1427   1.444   1_554  A
C1231      C1232   1.406       .  A
C1231      C1364   1.507       .  S
C1232      C1233   1.405       .  A
C1232      H1237   1.080       .  S
C1233      C1431   1.441   1_554  A
C1233      C1349   1.507       .  S
C1234      C1430   1.450       .  A
C1234      C1235   1.415       .  A
C1234      C1352   1.524       .  S
C1235      H1236   1.076       .  S
C1238      C1336   1.557       .  S
C1238      C1340   1.563       .  S
C1238      C1344   1.552       .  S
C1239      C1244   1.412       .  A
C1239      C1345   1.524       .  S
C1240      C1241   1.413       .  A
C1240      C1373   1.523       .  S
C1241      C1242   1.413       .  A
C1241      H1246   1.078       .  S
C1242      C1357   1.525       .  S
C1243      C1244   1.412       .  A
C1243      C1332   1.516       .  S
C1244      H1245   1.079       .  S
C1247      C1324   1.560       .  S
C1247      C1329   1.558       .  S
C1247      C1333   1.551       .  S
C1248      C1446   1.443       .  A
C1248      C1253   1.407       .  A
C1248      C1341   1.507       .  S
C1249      C1445   1.441   1_554  A
C1249      C1250   1.407       .  A
C1249      C1328   1.520       .  S
C1250      C1251   1.409       .  A
C1250      H1255   1.080       .  S
C1251      C1449   1.443   1_554  A
C1251      C1317   1.518       .  S
C1252      C1448   1.443       .  A
C1252      C1253   1.407       .  A
C1252      C1321   1.509       .  S
C1253      H1254   1.080       .  S
C1256      C1309   1.554       .  S
C1256      C1313   1.554       .  S
C1256      C1353   1.552       .  S
C1257      C1262   1.405       .  A
C1257      C1312   1.524       .  S
C1258      C1259   1.409       .  A
C1258      C1377   1.527       .  S
C1259      C1260   1.406       .  A
C1259      H1264   1.079       .  S
C1260      C1337   1.523       .  S
C1261      C1262   1.406       .  A
C1261      C1304   1.524       .  S
C1262      H1263   1.078       .  S
C1265      C1301   1.552       .  S
C1265      C1305   1.557       .  S
C1265      C1320   1.566       .  S
C1266      C1271   1.413       .  A
C1266      C1300   1.525       .  S
C1267      C1268   1.412       .  A
C1267      C1308   1.518       .  S
C1268      C1269   1.412       .  A
C1268      H1273   1.078       .  S
C1269      C1292   1.525       .  S
C1270      C1271   1.412       .  A
C1270      C1296   1.517       .  S
C1271      H1272   1.078       .  S
C1274      C1289   1.556       .  S
C1274      C1297   1.552       .  S
C1274      C1316   1.555       .  S
C1275      C1285   1.555       .  S
C1275      C1293   1.552       .  S
C1275      C1348   1.563       .  S
C1276      C1281   1.406       .  A
C1276      C1284   1.523       .  S
C1277      C1278   1.407       .  A
C1277      C1361   1.526       .  S
C1278      C1279   1.408       .  A
C1278      H1283   1.077       .  S
C1279      C1325   1.528       .  S
C1280      C1281   1.407       .  A
C1280      C1288   1.525       .  S
C1281      H1282   1.077       .  S
C1284      C1285   1.392       .  D
C1284      H1286   1.085       .  S
C1285      H1287   1.084       .  S
C1288      C1289   1.397       .  D
C1288      H1290   1.085       .  S
C1289      H1291   1.083       .  S
C1292      C1293   1.377       .  D
C1292      H1294   1.084       .  S
C1293      H1295   1.084       .  S
C1296      C1297   1.375       .  D
C1296      H1298   1.084       .  S
C1297      H1299   1.085       .  S
C1300      C1301   1.377       .  D
C1300      H1302   1.084       .  S
C1301      H1303   1.083       .  S
C1304      C1305   1.394       .  D
C1304      H1306   1.084       .  S
C1305      H1307   1.084       .  S
C1308      C1309   1.377       .  D
C1308      H1310   1.083       .  S
C1309      H1311   1.084       .  S
C1312      C1313   1.394       .  D
C1312      H1314   1.084       .  S
C1313      H1315   1.083       .  S
C1316      C1317   1.379       .  D
C1316      H1318   1.084       .  S
C1317      H1319   1.081       .  S
C1320      C1321   1.388       .  D
C1320      H1322   1.085       .  S
C1321      H1323   1.077       .  S
C1324      C1325   1.398       .  D
C1324      H1326   1.083       .  S
C1325      H1327   1.084       .  S
C1328      C1329   1.380       .  D
C1328      H1330   1.082       .  S
C1329      H1331   1.085       .  S
C1332      C1333   1.375       .  D
C1332      H1334   1.083       .  S
C1333      H1335   1.085       .  S
C1336      C1337   1.393       .  D
C1336      H1338   1.084       .  S
C1337      H1339   1.084       .  S
C1340      C1341   1.386       .  D
C1340      H1342   1.085       .  S
C1341      H1343   1.078       .  S
C1344      C1345   1.376       .  D
C1344      H1346   1.084       .  S
C1345      H1347   1.084       .  S
C1348      C1349   1.386       .  D
C1348      H1350   1.085       .  S
C1349      H1351   1.077       .  S
C1352      C1353   1.384       .  D
C1352      H1354   1.081       .  S
C1353      H1355   1.082       .  S
C1356      C1357   1.379       .  D
C1356      H1358   1.084       .  S
C1357      H1359   1.084       .  S
C1360      C1361   1.394       .  D
C1360      H1362   1.084       .  S
C1361      H1363   1.084       .  S
C1364      C1365   1.387       .  D
C1364      H1366   1.077       .  S
C1365      H1367   1.085       .  S
C1368      C1369   1.385       .  D
C1368      H1370   1.085       .  S
C1369      H1371   1.076       .  S
C1372      C1373   1.377       .  D
C1372      H1374   1.084       .  S
C1373      H1375   1.084       .  S
C1376      C1377   1.397       .  D
C1376      H1378   1.083       .  S
C1377      H1379   1.085       .  S
N1380      N1381   1.303       .  A
N1380      N1386   1.306       .  A
N1380     Mn1409   2.100       .  S
N1381      C1388   1.343       .  A
N1382      N1384   1.305       .  A
N1382      N1383   1.303       .  A
N1383      C1389   1.348       .  A
N1384      N1385   1.303       .  A
N1385      C1389   1.343       .  A
N1386      N1387   1.304       .  A
N1387      C1388   1.348       .  A
C1388      C1471   1.469       .  S
C1389      C1444   1.467       .  S
N1390      N1396   1.305       .  A
N1390      N1391   1.304       .  A
N1391      C1399   1.343       .  A
N1392      N1393   1.302       .  A
N1392      N1394   1.306       .  A
N1392     Mn1398   2.110   1_556  S
N1393      C1400   1.347       .  A
N1394      N1395   1.304       .  A
N1395      C1400   1.344       .  A
N1396      N1397   1.303       .  A
N1397      C1399   1.348       .  A
C1399      C1435   1.468       .  S
C1400      C1462   1.467       .  S
N1401      N1402   1.304       .  A
N1401      N1407   1.306       .  A
N1402      C1410   1.342       .  A
N1403      N1405   1.304       .  A
N1403      N1404   1.304       .  A
N1404      C1411   1.347       .  A
N1405      N1406   1.304       .  A
N1406      C1411   1.344       .  A
N1407      N1408   1.304       .  A
N1407     Mn1421   2.123       .  S
N1408      C1410   1.350       .  A
Mn1409    Cl1422   2.469       .  S
C1410      C1426   1.466       .  S
C1411      C1472   1.467       .  S
N1412      N1413   1.304       .  A
N1412      N1418   1.305       .  A
N1413      C1423   1.344       .  A
N1414      N1415   1.304       .  A
N1414      N1416   1.305       .  A
N1415      C1424   1.349       .  A
N1416      N1417   1.304       .  A
N1416     Mn1420   2.095       .  S
N1417      C1424   1.343       .  A
N1418      N1419   1.304       .  A
N1419      C1423   1.348       .  A
C1423      C1453   1.469       .  S
C1424      C1425   1.469       .  S
C1425      C1565   1.557       .  S
C1425      C1569   1.557       .  S
C1425      C1573   1.559       .  S
C1426      C1553   1.553       .  S
C1426      C1557   1.558       .  S
C1426      C1562   1.563       .  S
C1427      C1432   1.408       .  A
C1427      C1566   1.519       .  S
C1428      C1429   1.404       .  A
C1428      C1561   1.514       .  S
C1429      C1430   1.412       .  A
C1429      H1434   1.075       .  S
C1430      C1546   1.526       .  S
C1431      C1432   1.408       .  A
C1431      C1549   1.518       .  S
C1432      H1433   1.080       .  S
C1435      C1533   1.553       .  S
C1435      C1537   1.561       .  S
C1435      C1541   1.551       .  S
C1436      C1441   1.415       .  A
C1436      C1542   1.523       .  S
C1437      C1438   1.415       .  A
C1437      C1570   1.522       .  S
C1438      C1439   1.417       .  A
C1438      H1443   1.078       .  S
C1439      C1554   1.526       .  S
C1440      C1441   1.413       .  A
C1440      C1529   1.522       .  S
C1441      H1442   1.078       .  S
C1444      C1521   1.560       .  S
C1444      C1526   1.558       .  S
C1444      C1530   1.556       .  S
C1445      C1450   1.408       .  A
C1445      C1538   1.505       .  S
C1446      C1447   1.407       .  A
C1446      C1525   1.519       .  S
C1447      C1448   1.408       .  A
C1447      H1452   1.080       .  S
C1448      C1514   1.518       .  S
C1449      C1450   1.407       .  A
C1449      C1518   1.509       .  S
C1450      H1451   1.081       .  S
C1453      C1506   1.553       .  S
C1453      C1510   1.561       .  S
C1453      C1550   1.556       .  S
C1454      C1459   1.408       .  A
C1454      C1509   1.530       .  S
C1455      C1456   1.407       .  A
C1455      C1574   1.528       .  S
C1456      C1457   1.406       .  A
C1456      H1461   1.077       .  S
C1457      C1534   1.521       .  S
C1458      C1459   1.407       .  A
C1458      C1501   1.526       .  S
C1459      H1460   1.077       .  S
C1462      C1498   1.554       .  S
C1462      C1502   1.559       .  S
C1462      C1517   1.566       .  S
C1463      C1468   1.413       .  A
C1463      C1497   1.525       .  S
C1464      C1465   1.412       .  A
C1464      C1505   1.518       .  S
C1465      C1466   1.412       .  A
C1465      H1470   1.079       .  S
C1466      C1489   1.518       .  S
C1467      C1468   1.414       .  A
C1467      C1493   1.520       .  S
C1468      H1469   1.077       .  S
C1471      C1486   1.557       .  S
C1471      C1494   1.554       .  S
C1471      C1513   1.555       .  S
C1472      C1482   1.554       .  S
C1472      C1490   1.553       .  S
C1472      C1545   1.554       .  S
C1473      C1478   1.407       .  A
C1473      C1481   1.523       .  S
C1474      C1475   1.405       .  A
C1474      C1558   1.523       .  S
C1475      C1476   1.406       .  A
C1475      H1480   1.078       .  S
C1476      C1522   1.529       .  S
C1477      C1478   1.406       .  A
C1477      C1485   1.528       .  S
C1478      H1479   1.078       .  S
C1481      C1482   1.395       .  D
C1481      H1483   1.084       .  S
C1482      H1484   1.084       .  S
C1485      C1486   1.396       .  D
C1485      H1487   1.084       .  S
C1486      H1488   1.083       .  S
C1489      C1490   1.375       .  D
C1489      H1491   1.084       .  S
C1490      H1492   1.084       .  S
C1493      C1494   1.378       .  D
C1493      H1495   1.084       .  S
C1494      H1496   1.084       .  S
C1497      C1498   1.378       .  D
C1497      H1499   1.084       .  S
C1498      H1500   1.084       .  S
C1501      C1502   1.395       .  D
C1501      H1503   1.084       .  S
C1502      H1504   1.083       .  S
C1505      C1506   1.378       .  D
C1505      H1507   1.084       .  S
C1506      H1508   1.084       .  S
C1509      C1510   1.400       .  D
C1509      H1511   1.084       .  S
C1510      H1512   1.083       .  S
C1513      C1514   1.381       .  D
C1513      H1515   1.085       .  S
C1514      H1516   1.082       .  S
C1517      C1518   1.386       .  D
C1517      H1519   1.085       .  S
C1518      H1520   1.077       .  S
C1521      C1522   1.400       .  D
C1521      H1523   1.083       .  S
C1522      H1524   1.084       .  S
C1525      C1526   1.382       .  D
C1525      H1527   1.082       .  S
C1526      H1528   1.085       .  S
C1529      C1530   1.379       .  D
C1529      H1531   1.083       .  S
C1530      H1532   1.084       .  S
C1533      C1534   1.391       .  D
C1533      H1535   1.084       .  S
C1534      H1536   1.084       .  S
C1537      C1538   1.384       .  D
C1537      H1539   1.085       .  S
C1538      H1540   1.078       .  S
C1541      C1542   1.376       .  D
C1541      H1543   1.084       .  S
C1542      H1544   1.084       .  S
C1545      C1546   1.386       .  D
C1545      H1547   1.082       .  S
C1546      H1548   1.081       .  S
C1549      C1550   1.379       .  D
C1549      H1551   1.082       .  S
C1550      H1552   1.085       .  S
C1553      C1554   1.377       .  D
C1553      H1555   1.084       .  S
C1554      H1556   1.084       .  S
C1557      C1558   1.394       .  D
C1557      H1559   1.084       .  S
C1558      H1560   1.084       .  S
C1561      C1562   1.385       .  D
C1561      H1563   1.076       .  S
C1562      H1564   1.084       .  S
C1565      C1566   1.382       .  D
C1565      H1567   1.084       .  S
C1566      H1568   1.081       .  S
C1569      C1570   1.378       .  D
C1569      H1571   1.084       .  S
C1570      H1572   1.084       .  S
C1573      C1574   1.398       .  D
C1573      H1575   1.083       .  S
C1574      H1576   1.084       .  S
