geometry optimzed in LAMMPS
_audit_creation_date              2020-12-01 
_audit_creation_method            'lammps2cif' 
_symmetry_space_group_name_H-M    'P1' 
_symmetry_Int_Tables_number       1 
_symmetry_cell_setting            triclinic 
loop_ 
_symmetry_equiv_pos_as_xyz 
  x,y,z 
_cell_length_a                    45.94485274 
_cell_length_b                    45.97207066877179 
_cell_length_c                    126.74912101097915 
_cell_angle_alpha                 89.86801059724492 
_cell_angle_beta                  90.11623473849845 
_cell_angle_gamma                 90.18010544902948 
loop_ 
_atom_site_label 
_atom_site_type_symbol 
_atom_site_fract_x 
_atom_site_fract_y 
_atom_site_fract_z 
_atom_site_charge 
N1          N  0.31294172  0.30056995  0.72544435    -0.26700
N2          N  0.29954134  0.28167647  0.71925112    -0.34500
C3          C  0.28434315  0.26284687  0.72516660     0.01700
C4          C  0.28825432  0.27013230  0.73564902     0.07700
C5          C  0.30655409  0.29411588  0.73554921    -0.05400
H6          H  0.27171785  0.24506385  0.72196293     0.08400
H7          H  0.31479558  0.30585216  0.74232035     0.09600
Cu8        Cu  0.30134980  0.28121048  0.70304080     0.44200
Cu9        Cu  0.33961227  0.33366319  0.71976152     0.42000
Cu10       Cu  0.33879396  0.33927033  0.69094770     0.43900
N11         N  0.30320518  0.28594921  0.68691953    -0.34100
N12         N  0.31634310  0.30823777  0.68237820    -0.28300
C13         C  0.31456800  0.30526309  0.67185267    -0.04400
C14         C  0.29990207  0.27965868  0.66969890     0.07800
C15         C  0.29286681  0.26797457  0.67944775     0.01600
H16         H  0.32435612  0.31996945  0.66619633     0.09300
H17         H  0.28157139  0.24776438  0.68104203     0.08300
N18         N  0.36451079  0.36449319  0.70075593    -0.35500
N19         N  0.36516523  0.36259441  0.71116734    -0.27700
C20         C  0.38518608  0.38144254  0.71488090    -0.02900
C21         C  0.39765688  0.39581198  0.70640605     0.05700
C22         C  0.38400956  0.38444608  0.69757647     0.03800
H23         H  0.39044261  0.38431884  0.72313780     0.08900
H24         H  0.38802515  0.38982885  0.68939989     0.07700
N25         N  0.67737114  0.62256291  0.71092697    -0.26700
N26         N  0.68616223  0.64375340  0.70459438    -0.34500
C27         C  0.70955217  0.65681010  0.70884841     0.01700
C28         C  0.71592803  0.64336352  0.71830546     0.07700
C29         C  0.69506602  0.62168827  0.71941588    -0.05400
H30         H  0.72105245  0.67493914  0.70531147     0.08400
H31         H  0.69274947  0.60647160  0.72588246     0.09600
Cu32       Cu  0.66711106  0.65453643  0.69030453     0.44200
Cu33       Cu  0.64169233  0.59588250  0.70771427     0.42000
Cu34       Cu  0.61178848  0.60632121  0.68149602     0.43900
N35         N  0.64655191  0.65912774  0.67585933    -0.34100
N36         N  0.62657723  0.64057382  0.67254443    -0.28300
C37         C  0.61702535  0.64880958  0.66299004    -0.04400
C38         C  0.63177417  0.67388951  0.66013235     0.07800
C39         C  0.65026929  0.67987001  0.66848028     0.01600
H40         H  0.60012497  0.63764925  0.65862740     0.09300
H41         H  0.66522267  0.69800829  0.66915904     0.08300
N42         N  0.59505497  0.57751733  0.69233244    -0.35500
N43         N  0.60543267  0.57361088  0.70196076    -0.27700
C44         C  0.58836856  0.55422694  0.70701632    -0.02900
C45         C  0.56618020  0.54583974  0.70024940     0.05700
C46         C  0.57123231  0.56099412  0.69099119     0.03800
H47         H  0.59165505  0.54702272  0.71505905     0.08900
H48         H  0.55864517  0.56033131  0.68378052     0.07700
N49         N  0.35856024  0.08521414  0.55598447    -0.26700
N50         N  0.36601692  0.08309081  0.56603542    -0.34500
C51         C  0.38678521  0.06269386  0.56704730     0.01700
C52         C  0.39234026  0.05128514  0.55715260     0.07700
C53         C  0.37392864  0.06587127  0.55035934    -0.05400
H54         H  0.39658404  0.05620837  0.57446006     0.08400
H55         H  0.37217169  0.06300229  0.54191466     0.09600
Cu56       Cu  0.34647311  0.10728559  0.57782734     0.44200
Cu57       Cu  0.32943379  0.11565630  0.55022405     0.42000
Cu58       Cu  0.29381410  0.16164860  0.56910536     0.43900
N59         N  0.32278528  0.13354160  0.58791256    -0.34100
N60         N  0.30358468  0.15310146  0.58475481    -0.28300
C61         C  0.29325129  0.16724988  0.59321744    -0.04400
C62         C  0.30665742  0.15603800  0.60213698     0.07800
C63         C  0.32513065  0.13470149  0.59847330     0.01600
H64         H  0.27787759  0.18497739  0.59279469     0.09300
H65         H  0.33988093  0.12155791  0.60311886     0.08300
N66         N  0.29077825  0.16775342  0.55295641    -0.35500
N67         N  0.30389922  0.15086575  0.54602798    -0.27700
C68         C  0.29939647  0.16152519  0.53627548    -0.02900
C69         C  0.28254830  0.18636724  0.53712581     0.05700
C70         C  0.27748479  0.18959093  0.54780300     0.03800
H71         H  0.30846390  0.15222365  0.52918320     0.08900
H72         H  0.26571560  0.20704732  0.55158016     0.07700
N73         N  0.60081804  0.87395409  0.54874144    -0.26700
N74         N  0.58410743  0.86207815  0.55607607    -0.34500
C75         C  0.56050417  0.87871981  0.55752915     0.01700
C76         C  0.56239692  0.90243177  0.55083889     0.07700
C77         C  0.58830850  0.89884665  0.54543420    -0.05400
H78         H  0.54378639  0.87430569  0.56332023     0.08400
H79         H  0.59741608  0.91330495  0.53955085     0.09600
Cu80       Cu  0.59449716  0.82523160  0.56457056     0.44200
Cu81       Cu  0.63941765  0.85503945  0.54345023     0.42000
Cu82       Cu  0.65763474  0.78666738  0.55661294     0.43900
N83         N  0.61089654  0.79048891  0.57296921    -0.34100
N84         N  0.63400025  0.77574484  0.56991987    -0.28300
C85         C  0.63983839  0.75504838  0.57712000    -0.04400
C86         C  0.61962971  0.75717319  0.58513737     0.07800
C87         C  0.60153445  0.77986724  0.58224820     0.01600
H88         H  0.65800607  0.74016777  0.57671402     0.09300
H89         H  0.58310599  0.78826066  0.58656399     0.08300
N90         N  0.68022875  0.80346343  0.54386323    -0.35500
N91         N  0.67419280  0.82840322  0.53912897    -0.27700
C92         C  0.69324362  0.83243648  0.53118275    -0.02900
C93         C  0.71203142  0.80891848  0.53090108     0.05700
C94         C  0.70310652  0.79102398  0.53909014     0.03800
H95         H  0.69319612  0.85094991  0.52589702     0.08900
H96         H  0.71232632  0.77041180  0.54145396     0.07700
N97         N  0.50002890  0.39925136  0.29431488    -0.26700
N98         N  0.48033408  0.38474643  0.29980527    -0.34500
C99         C  0.46606849  0.36641201  0.29334988     0.01700
C100        C  0.47737161  0.36945938  0.28326024     0.07700
C101        C  0.49880661  0.39054907  0.28418355    -0.05400
H102        H  0.44923547  0.35156872  0.29594034     0.08400
H103        H  0.51301452  0.39841278  0.27799954     0.09600
Cu104      Cu  0.47505019  0.38932261  0.31596773     0.44200
Cu105      Cu  0.52872040  0.42851484  0.30125320     0.42000
Cu106      Cu  0.53005787  0.43014657  0.33018638     0.43900
N107        N  0.47446629  0.39560863  0.33217442    -0.34100
N108        N  0.49489868  0.40975611  0.33745592    -0.28300
C109        C  0.48784330  0.40992865  0.34776544    -0.04400
C110        C  0.46162234  0.39542547  0.34901655     0.07800
C111        C  0.45383352  0.38656679  0.33894793     0.01600
H112        H  0.50052415  0.42044884  0.35387469     0.09300
H113        H  0.43462862  0.37449499  0.33664593     0.08300
N114        N  0.55824867  0.45384212  0.32060197    -0.35500
N115        N  0.55661130  0.45426289  0.31017227    -0.27700
C116        C  0.57559087  0.47401954  0.30641876    -0.02900
C117        C  0.59020192  0.48629541  0.31483151     0.05700
C118        C  0.57874142  0.47300901  0.32372262     0.03800
H119        H  0.57838078  0.47923288  0.29815370     0.08900
H120        H  0.58389808  0.47788204  0.33186895     0.07700
N121        N  0.87879005  0.69278991  0.29885116    -0.26700
N122        N  0.89653497  0.70518851  0.30574618    -0.34500
C123        C  0.92063172  0.71433560  0.30073936     0.01700
C124        C  0.91777977  0.70782046  0.29014906     0.07700
C125        C  0.89093168  0.69436121  0.28919896    -0.05400
H126        H  0.93813798  0.72637317  0.30444501     0.08400
H127        H  0.88082365  0.68661053  0.28201509     0.09600
Cu128      Cu  0.88584557  0.71353579  0.32131196     0.44200
Cu129      Cu  0.83898015  0.67442363  0.30303246     0.42000
Cu130      Cu  0.81324740  0.69475567  0.32908145     0.43900
N131        N  0.86836679  0.72485245  0.33578635    -0.34100
N132        N  0.84136486  0.71850971  0.33853601    -0.28300
C133        C  0.83692384  0.72733049  0.34850636    -0.04400
C134        C  0.86232843  0.73983535  0.35223222     0.07800
C135        C  0.88184990  0.73799131  0.34392266     0.01600
H136        H  0.81707665  0.72364563  0.35289783     0.09300
H137        H  0.90447993  0.74448949  0.34387987     0.08300
N138        N  0.79239035  0.66484453  0.31946221    -0.35500
N139        N  0.80223806  0.65653794  0.31014609    -0.27700
C140        C  0.78565394  0.63438845  0.30661340    -0.02900
C141        C  0.76415070  0.62886601  0.31397887     0.05700
C142        C  0.76908582  0.64856824  0.32201982     0.03800
H143        H  0.78933143  0.62278753  0.29932393     0.08900
H144        H  0.75758626  0.64995744  0.32944677     0.07700
N145        N  0.24180082  0.34053680  0.45749952    -0.26700
N146        N  0.26193525  0.32784086  0.45167347    -0.34500
C147        C  0.27319587  0.30539226  0.45712595     0.01700
C148        C  0.25957823  0.30392733  0.46682620     0.07700
C149        C  0.23975014  0.32655708  0.46679488    -0.05400
H150        H  0.29017730  0.29122612  0.45425104     0.08400
H151        H  0.22479653  0.33249376  0.47299424     0.09600
Cu152      Cu  0.27389964  0.34173755  0.43667262     0.44200
Cu153      Cu  0.21750785  0.37607235  0.45273276     0.42000
Cu154      Cu  0.23168631  0.40135617  0.42637935     0.43900
N155        N  0.28280567  0.36192008  0.42234007    -0.34100
N156        N  0.26704894  0.38366125  0.41861020    -0.28300
C157        C  0.27839522  0.39262974  0.40940007    -0.04400
C158        C  0.30253772  0.37591102  0.40721007     0.07800
C159        C  0.30473592  0.35653032  0.41557900     0.01600
H160        H  0.26987561  0.41034911  0.40469075     0.09300
H161        H  0.32096513  0.33981863  0.41670496     0.08300
N162        N  0.19986221  0.41880406  0.43601399    -0.35500
N163        N  0.19513461  0.41015104  0.44581141    -0.27700
C164        C  0.17445945  0.42700912  0.45013423    -0.02900
C165        C  0.16571618  0.44716926  0.44263883     0.05700
C166        C  0.18219569  0.44123448  0.43379741     0.03800
H167        H  0.16672581  0.42484356  0.45815420     0.08900
H168        H  0.18198843  0.45294965  0.42638702     0.07700
N169        N  0.92268481  0.70222451  0.47811193    -0.26700
N170        N  0.91320525  0.72368576  0.47204752    -0.34500
C171        C  0.89150245  0.73763404  0.47701196     0.01700
C172        C  0.88709583  0.72444316  0.48671939     0.07700
C173        C  0.90725938  0.70213896  0.48713580    -0.05400
H174        H  0.87986353  0.75593442  0.47371750     0.08400
H175        H  0.91030925  0.68676298  0.49351351     0.09600
Cu176      Cu  0.92936638  0.73349004  0.45720183     0.44200
Cu177      Cu  0.95586817  0.67348321  0.47388602     0.42000
Cu178      Cu  0.98839488  0.68916022  0.44859540     0.43900
N179        N  0.94718489  0.73668278  0.44224752    -0.34100
N180        N  0.96908151  0.72028731  0.43913305    -0.28300
C181        C  0.97352259  0.72455250  0.42877677    -0.04400
C182        C  0.95336634  0.74445862  0.42515662     0.07800
C183        C  0.93705194  0.75188963  0.43393612     0.01600
H184        H  0.98895001  0.71249124  0.42407102     0.09300
H185        H  0.91810560  0.76574499  0.43417972     0.08300
N186        N  0.00143874  0.65526737  0.45822274    -0.35500
N187        N  0.98946030  0.64875199  0.46740007    -0.27700
C188        C  0.00188436  0.62422247  0.47114209    -0.02900
C189        C  0.02267812  0.61502894  0.46396532     0.05700
C190        C  0.02168165  0.63534466  0.45587992     0.03800
H191        H  0.99586105  0.61356170  0.47843264     0.08900
H192        H  0.03390974  0.63533629  0.44860528     0.07700
N193        N  0.47242878  0.12627127  0.95612517    -0.26700
N194        N  0.44941545  0.13596847  0.95092907    -0.34500
C195        C  0.43728001  0.15766524  0.95643792     0.01700
C196        C  0.45327831  0.16177192  0.96559480     0.07700
C197        C  0.47542589  0.14152987  0.96511271    -0.05400
H198        H  0.41706816  0.16804012  0.95424693     0.08400
H199        H  0.49139587  0.13694076  0.97117105     0.09600
Cu200      Cu  0.43156857  0.11673038  0.93760039     0.44200
Cu201      Cu  0.49594910  0.08991688  0.95172540     0.42000
Cu202      Cu  0.46113751  0.04779978  0.93102573     0.43900
N203        N  0.41414250  0.09073504  0.92579523    -0.34100
N204        N  0.42509065  0.06500940  0.92347970    -0.28300
C205        C  0.40877305  0.05258037  0.91591471    -0.04400
C206        C  0.38637021  0.07129563  0.91333545     0.07800
C207        C  0.39044375  0.09539913  0.91975565     0.01600
H208        H  0.41272391  0.03126317  0.91261816     0.09300
H209        H  0.37706026  0.11466926  0.92016211     0.08300
N210        N  0.49745650  0.03421477  0.93934244    -0.35500
N211        N  0.51069008  0.04976243  0.94669532    -0.27700
C212        C  0.53300991  0.03428881  0.95064586    -0.02900
C213        C  0.53363465  0.00765527  0.94561088     0.05700
C214        C  0.51083038  0.00840278  0.93845823     0.03800
H215        H  0.54712249  0.04150249  0.95696547     0.08900
H216        H  0.50402698  0.99142849  0.93309246     0.07700
N217        N  0.70215528  0.80399923  0.96592145    -0.26700
N218        N  0.69675944  0.79584135  0.95610906    -0.34500
C219        C  0.67425024  0.81136934  0.95233688     0.01700
C220        C  0.66506106  0.83022259  0.96016443     0.07700
C221        C  0.68315827  0.82483480  0.96865967    -0.05400
H222        H  0.66595801  0.80958518  0.94437441     0.08400
H223        H  0.68320080  0.83599675  0.97616425     0.09600
Cu224      Cu  0.72208731  0.76653570  0.94774690     0.44200
Cu225      Cu  0.73633877  0.78827769  0.97494836     0.42000
Cu226      Cu  0.78689794  0.74267802  0.96066926     0.43900
N227        N  0.75479304  0.74372630  0.94012760    -0.34100
N228        N  0.77905914  0.73566466  0.94489641    -0.28300
C229        C  0.79780221  0.72543891  0.93769586    -0.04400
C230        C  0.78474837  0.72708413  0.92789756     0.07800
C231        C  0.75739050  0.73868772  0.92972854     0.01600
H232        H  0.81997632  0.71901199  0.93938946     0.09300
H233        H  0.74144442  0.74517608  0.92389435     0.08300
N234        N  0.79055792  0.75220789  0.97646497    -0.35500
N235        N  0.77235453  0.76880150  0.98178545    -0.27700
C236        C  0.78090511  0.76969561  0.99194242    -0.02900
C237        C  0.80559072  0.75278581  0.99301547     0.05700
C238        C  0.81109050  0.74209078  0.98302116     0.03800
H239        H  0.76970094  0.78135997  0.99811440     0.08900
H240        H  0.82836877  0.72768289  0.98060460     0.07700
N241        N  0.18673304  0.08073848  0.79839174    -0.26700
N242        N  0.20429309  0.09725784  0.80409636    -0.34500
C243        C  0.21455128  0.11897995  0.79805428     0.01700
C244        C  0.20283096  0.11606801  0.78803630     0.07700
C245        C  0.18539531  0.09153250  0.78852444    -0.05400
H246        H  0.22956525  0.13544893  0.80081983     0.08400
H247        H  0.17259345  0.08227140  0.78219045     0.09600
Cu248      Cu  0.21406954  0.09000830  0.81981553     0.44200
Cu249      Cu  0.16521276  0.04467530  0.80440319     0.42000
Cu250      Cu  0.18435700  0.02602949  0.83162379     0.43900
N251        N  0.22215848  0.07830956  0.83531020    -0.34100
N252        N  0.21160420  0.05438417  0.83966083    -0.28300
C253        C  0.22142536  0.05237611  0.84964593    -0.04400
C254        C  0.23908747  0.07628430  0.85164331     0.07800
C255        C  0.23892624  0.09224453  0.84239065     0.01600
H256        H  0.21621744  0.03470549  0.85496513     0.09300
H257        H  0.25067343  0.11224096  0.84083794     0.08300
N258        N  0.15397257  0.00377825  0.82259855    -0.35500
N259        N  0.14644992  0.01081998  0.81284432    -0.27700
C260        C  0.12435044  0.99353749  0.80974334    -0.02900
C261        C  0.11775476  0.97472325  0.81796408     0.05700
C262        C  0.13704057  0.98175172  0.82592564     0.03800
H263        H  0.11359671  0.99512355  0.80216675     0.08900
H264        H  0.13798466  0.97225571  0.83373661     0.07700
N265        N  0.92311583  0.78340295  0.80482868    -0.26700
N266        N  0.92276897  0.78840975  0.81509174    -0.34500
C267        C  0.94035836  0.81098264  0.81727285     0.01700
C268        C  0.95251100  0.82073986  0.80792097     0.07700
C269        C  0.94111488  0.80273011  0.80019693    -0.05400
H270        H  0.94414642  0.81924762  0.82514045     0.08400
H271        H  0.94572252  0.80350814  0.79183469     0.09600
Cu272      Cu  0.89922812  0.76426246  0.82588284     0.44200
Cu273      Cu  0.89914016  0.75026015  0.79779464     0.42000
Cu274      Cu  0.86079190  0.70229221  0.81642516     0.43900
N275        N  0.87451172  0.73781394  0.83556260    -0.34100
N276        N  0.86039148  0.71465771  0.83210764    -0.28300
C277        C  0.84521873  0.70290147  0.84012543    -0.04400
C278        C  0.85007187  0.71948686  0.84905135     0.07800
C279        C  0.86882284  0.74146530  0.84586659     0.01600
H280        H  0.83105988  0.68415579  0.83944093     0.09300
H281        H  0.87716522  0.75929165  0.85054596     0.08300
N282        N  0.85947652  0.69800398  0.80018344    -0.35500
N283        N  0.87259495  0.71559470  0.79340793    -0.27700
C284        C  0.86455524  0.70817224  0.78355283    -0.02900
C285        C  0.84548798  0.68477822  0.78420560     0.05700
C286        C  0.84293515  0.67891614  0.79483940     0.03800
H287        H  0.87136981  0.71965766  0.77652248     0.08900
H288        H  0.82894544  0.66280760  0.79847255     0.07700
N289        N  0.30091333  0.28664875  0.03471208    -0.26700
N290        N  0.31709046  0.26761870  0.03988245    -0.34500
C291        C  0.33456381  0.25387202  0.03304506     0.01700
C292        C  0.32915180  0.26480090  0.02304985     0.07700
C293        C  0.30759551  0.28539044  0.02439204    -0.05400
H294        H  0.34993052  0.23715947  0.03525075     0.08400
H295        H  0.29775352  0.29875469  0.01832696     0.09600
Cu296      Cu  0.31522149  0.26113214  0.05597354     0.44200
Cu297      Cu  0.27118845  0.31389058  0.04204960     0.42000
Cu298      Cu  0.26433533  0.30525277  0.07042735     0.43900
N299        N  0.31004917  0.25877613  0.07211139    -0.34100
N300        N  0.29160401  0.27509177  0.07743547    -0.28300
C301        C  0.29364124  0.26850559  0.08774488    -0.04400
C302        C  0.31437290  0.24690514  0.08892365     0.07800
C303        C  0.32424948  0.24124925  0.07886148     0.01600
H304        H  0.28074624  0.27858395  0.09384578     0.09300
H305        H  0.34058873  0.22558148  0.07660418     0.08300
N306        N  0.24057623  0.33493862  0.06167229    -0.35500
N307        N  0.24356483  0.33859885  0.05137886    -0.27700
C308        C  0.22696210  0.36111305  0.04828804    -0.02900
C309        C  0.21267717  0.37192347  0.05701895     0.05700
C310        C  0.22177002  0.35478754  0.06538186     0.03800
H311        H  0.22595405  0.36948794  0.04031358     0.08900
H312        H  0.21632095  0.35737870  0.07362546     0.07700
N313        N  0.03548189  0.57719138  0.06768082    -0.26700
N314        N  0.05919796  0.58850611  0.07194814    -0.34500
C315        C  0.08009729  0.56822456  0.07227615     0.01700
C316        C  0.06900950  0.54282321  0.06801625     0.07700
C317        C  0.04061779  0.54920286  0.06523148    -0.05400
H318        H  0.10146867  0.57162239  0.07565861     0.08400
H319        H  0.02495888  0.53469630  0.06161178     0.09600
Cu320      Cu  0.06168240  0.62993949  0.07809081     0.44200
Cu321      Cu  0.99825692  0.60123935  0.06487888     0.42000
Cu322      Cu  0.99966623  0.67572661  0.07464505     0.43900
N323        N  0.05523756  0.66740063  0.08667780    -0.34100
N324        N  0.03193005  0.68390180  0.08563483    -0.28300
C325        C  0.03184252  0.70387828  0.09335584    -0.04400
C326        C  0.05628251  0.69973747  0.09953733     0.07800
C327        C  0.07069445  0.67641846  0.09506675     0.01600
H328        H  0.01446100  0.71924075  0.09471028     0.09300
H329        H  0.08977918  0.66543126  0.09806951     0.08300
N330        N  0.97049826  0.66053854  0.06348895    -0.35500
N331        N  0.96943186  0.63327590  0.06020544    -0.27700
C332        C  0.94969232  0.63111449  0.05241696    -0.02900
C333        C  0.93788971  0.65827606  0.05067158     0.05700
C334        C  0.95152038  0.67646769  0.05785220     0.03800
H335        H  0.94552801  0.61155842  0.04792108     0.08900
H336        H  0.94902354  0.69974729  0.05862416     0.07700
N337        N  0.36549484  0.08995383  0.20972487    -0.26700
N338        N  0.36378670  0.08644787  0.19938587    -0.34500
C339        C  0.35497500  0.05922162  0.19729206     0.01700
C340        C  0.35059425  0.04494178  0.20672602     0.07700
C341        C  0.35756067  0.06497106  0.21448711    -0.05400
H342        H  0.35068656  0.05088373  0.18945983     0.08400
H343        H  0.35628377  0.06197503  0.22293991     0.09600
Cu344      Cu  0.36971520  0.11908501  0.18838897     0.44200
Cu345      Cu  0.37674007  0.12899271  0.21687253     0.42000
Cu346      Cu  0.38545119  0.18950200  0.19873984     0.43900
N347        N  0.37190280  0.15589454  0.17907229    -0.34100
N348        N  0.37758977  0.18194934  0.18293807    -0.28300
C349        C  0.37588729  0.20168232  0.17513831    -0.04400
C350        C  0.36865957  0.18738910  0.16592640     0.07800
C351        C  0.36631449  0.15829346  0.16869350     0.01600
H352        H  0.37876106  0.22487515  0.17617151     0.09300
H353        H  0.36017984  0.14027251  0.16368047     0.08300
N354        N  0.39218517  0.19253136  0.21481873    -0.35500
N355        N  0.38883705  0.17062711  0.22148495    -0.27700
C356        C  0.39497515  0.17996390  0.23129109    -0.02900
C357        C  0.40263802  0.20905625  0.23075567     0.05700
C358        C  0.40058170  0.21632850  0.22017460     0.03800
H359        H  0.39407688  0.16651144  0.23830150     0.08900
H360        H  0.40482363  0.23724100  0.21656896     0.07700
N361        N  0.17871893  0.83765053  0.21968694    -0.26700
N362        N  0.19159413  0.83359930  0.21050009    -0.34500
C363        C  0.21372007  0.85252322  0.20952024     0.01700
C364        C  0.21482271  0.86935715  0.21855727     0.07700
C365        C  0.19232305  0.85935972  0.22481958    -0.05400
H366        H  0.22714421  0.85442639  0.20255542     0.08400
H367        H  0.18592064  0.86764984  0.23244350     0.09600
Cu368      Cu  0.17678670  0.80520713  0.19912539     0.44200
Cu369      Cu  0.14271412  0.81421320  0.22460626     0.42000
Cu370      Cu  0.11120805  0.76570045  0.20526459     0.43900
N371        N  0.15324304  0.78213400  0.18810165    -0.34100
N372        N  0.12866940  0.76844346  0.19030088    -0.28300
C373        C  0.11737246  0.75764515  0.18135351    -0.04400
C374        C  0.13582672  0.76493337  0.17312232     0.07800
C375        C  0.15839264  0.78028732  0.17769601     0.01600
H376        H  0.09719069  0.74553284  0.18094663     0.09300
H377        H  0.17680574  0.79009661  0.17371885     0.08300
N378        N  0.09792394  0.76743468  0.22080126    -0.35500
N379        N  0.10873095  0.78592538  0.22776595    -0.27700
C380        C  0.09486762  0.78229744  0.23699820    -0.02900
C381        C  0.07454838  0.76030441  0.23577284     0.05700
C382        C  0.07720117  0.75120322  0.22545385     0.03800
H383        H  0.09966129  0.79437626  0.24411140     0.08900
H384        H  0.06472259  0.73434130  0.22156294     0.07700
C385        C  0.27514613  0.92745336  0.21613552     0.19300
C386        C  0.30129727  0.92909616  0.21046856    -0.18800
C387        C  0.31867181  0.95397578  0.21095790    -0.11100
C388        C  0.31005851  0.97788682  0.21706958     0.21600
C389        C  0.28460558  0.97588451  0.22310266    -0.20400
C390        C  0.26709212  0.95102448  0.22257329    -0.11200
C391        C  0.32625586  0.00572061  0.21677293    -0.15400
C392        C  0.33827898  0.01553391  0.20779423    -0.29300
C393        C  0.25626205  0.90162363  0.21453154    -0.03500
C394        C  0.23406413  0.89423796  0.22089367    -0.40100
H395        H  0.30808295  0.91123213  0.20549511     0.12700
H396        H  0.33862714  0.95462343  0.20643335     0.12300
H397        H  0.27759207  0.99410445  0.22785420     0.11800
H398        H  0.24684926  0.95100620  0.22690723     0.12000
H399        H  0.32545383  0.01970553  0.22365900     0.14800
H400        H  0.33678924  0.00260842  0.20065043     0.13500
H401        H  0.26104706  0.88804973  0.20776078     0.11200
H402        H  0.22966054  0.90643220  0.22801687     0.13200
C403        C  0.10302654  0.74026553  0.14661883     0.19300
C404        C  0.07439395  0.73660781  0.14300071    -0.18800
C405        C  0.06890745  0.72742815  0.13271112    -0.11100
C406        C  0.09206301  0.72171691  0.12579192     0.21600
C407        C  0.12072400  0.72545404  0.12937512    -0.20400
C408        C  0.12623688  0.73473110  0.13968002    -0.11200
C409        C  0.08703451  0.70970065  0.11511208    -0.15400
C410        C  0.06240170  0.71432000  0.10963776    -0.29300
C411        C  0.10748779  0.74790516  0.15785435    -0.03500
C412        C  0.13250603  0.75847230  0.16180681    -0.40100
H413        H  0.05615862  0.74034986  0.14822482     0.12700
H414        H  0.04653498  0.72382550  0.13036237     0.12300
H415        H  0.13890048  0.72076112  0.12422947     0.11800
H416        H  0.14864175  0.73648999  0.14222203     0.12000
H417        H  0.10422589  0.69665663  0.11167884     0.14800
H418        H  0.04589690  0.72890868  0.11265780     0.13500
H419        H  0.08897984  0.74507886  0.16306881     0.11200
H420        H  0.15080754  0.76328808  0.15670442     0.13200
C421        C  0.32572924  0.22671366  0.11813408     0.19300
C422        C  0.32565494  0.24291559  0.12748497    -0.18800
C423        C  0.33455519  0.23035543  0.13698609    -0.11100
C424        C  0.34370085  0.20117235  0.13732019     0.21600
C425        C  0.34307726  0.18474488  0.12801177    -0.20400
C426        C  0.33423472  0.19735110  0.11849520    -0.11200
C427        C  0.35244523  0.18677532  0.14731255    -0.15400
C428        C  0.36234777  0.20152102  0.15573654    -0.29300
C429        C  0.31581101  0.24092809  0.10826739    -0.03500
C430        C  0.32417918  0.23220104  0.09863547    -0.40100
H431        H  0.31867647  0.26540054  0.12744159     0.12700
H432        H  0.33352049  0.24344105  0.14404754     0.12300
H433        H  0.34940282  0.16207387  0.12810860     0.11800
H434        H  0.33353687  0.18384206  0.11152211     0.12000
H435        H  0.35071509  0.16324517  0.14768870     0.14800
H436        H  0.36551642  0.22487492  0.15532265     0.13500
H437        H  0.30214452  0.26001518  0.10902192     0.11200
H438        H  0.33931641  0.21432641  0.09776176     0.13200
C439        C  0.12864545  0.48452672  0.06679678     0.19300
C440        C  0.15676510  0.48435536  0.06253239    -0.18800
C441        C  0.17257652  0.45853494  0.06198994    -0.11100
C442        C  0.16067439  0.43242273  0.06586738     0.21600
C443        C  0.13295352  0.43274665  0.07047676    -0.20400
C444        C  0.11689114  0.45852623  0.07085291    -0.11200
C445        C  0.17732274  0.40492316  0.06547948    -0.15400
C446        C  0.19465428  0.39837779  0.05729795    -0.29300
C447        C  0.11290067  0.51247795  0.06743287    -0.03500
C448        C  0.08375011  0.51453385  0.06702081    -0.40100
H449        H  0.16647105  0.50425752  0.05955995     0.12700
H450        H  0.19430919  0.45912276  0.05871182     0.12300
H451        H  0.12361911  0.41296024  0.07369293     0.11800
H452        H  0.09564062  0.45819300  0.07451658     0.12000
H453        H  0.17450730  0.38939909  0.07187280     0.14800
H454        H  0.19556096  0.41276909  0.05049845     0.13500
H455        H  0.12595139  0.53218684  0.06785410     0.11200
H456        H  0.07045104  0.49532432  0.06569579     0.13200
C457        C  0.05023135  0.92711532  0.81215514     0.19300
C458        C  0.03694598  0.91671162  0.80293022    -0.18800
C459        C  0.01500574  0.89560137  0.80343318    -0.11100
C460        C  0.00582714  0.88446612  0.81324621     0.21600
C461        C  0.01833309  0.89577987  0.82248429    -0.20400
C462        C  0.04020964  0.91688603  0.82197671    -0.11200
C463        C  0.98328896  0.86134057  0.81430324    -0.15400
C464        C  0.97386342  0.84445365  0.80631615    -0.29300
C465        C  0.07403264  0.94893040  0.81124198    -0.03500
C466        C  0.09431579  0.95284199  0.81877361    -0.40100
H467        H  0.04383049  0.92469441  0.79527636     0.12700
H468        H  0.00536825  0.88837311  0.79611715     0.12300
H469        H  0.01131153  0.88807740  0.83016011     0.11800
H470        H  0.04890920  0.92524249  0.82930123     0.12000
H471        H  0.97485909  0.85743667  0.82217485     0.14800
H472        H  0.98227774  0.84727319  0.79840478     0.13500
H473        H  0.07535525  0.96146899  0.80398855     0.11200
H474        H  0.09402531  0.93964050  0.82587202     0.13200
C475        C  0.89181246  0.70158323  0.03071319     0.19300
C476        C  0.87545231  0.72729642  0.03097220    -0.18800
C477        C  0.85964995  0.73631884  0.02211744    -0.11100
C478        C  0.86007393  0.71972024  0.01280870     0.21600
C479        C  0.87687493  0.69433600  0.01250418    -0.20400
C480        C  0.89259923  0.68533285  0.02132976    -0.11200
C481        C  0.84422148  0.72826052  0.00310845    -0.15400
C482        C  0.82147962  0.74659860  0.00289265    -0.29300
C483        C  0.90916719  0.69326343  0.04011607    -0.03500
C484        C  0.91817211  0.66590728  0.04192684    -0.40100
H485        H  0.87498522  0.74049015  0.03803778     0.12700
H486        H  0.84772014  0.75650919  0.02256903     0.12300
H487        H  0.87793920  0.68141646  0.00537840     0.11800
H488        H  0.90587218  0.66606170  0.02062773     0.12000
H489        H  0.85097884  0.71777975  0.99586774     0.14800
H490        H  0.81349198  0.75650052  0.01007003     0.13500
H491        H  0.91467605  0.71029714  0.04569459     0.11200
H492        H  0.91151106  0.64835587  0.03674945     0.13200
C493        C  0.82770461  0.72868853  0.87819228     0.19300
C494        C  0.84186511  0.73947521  0.88719027    -0.18800
C495        C  0.82877603  0.73744672  0.89710345    -0.11100
C496        C  0.80100478  0.72483153  0.89818693     0.21600
C497        C  0.78664366  0.71441686  0.88918535    -0.20400
C498        C  0.79986225  0.71616902  0.87927940    -0.11200
C499        C  0.78558977  0.72460187  0.90843876    -0.15400
C500        C  0.79962536  0.72291606  0.91772054    -0.29300
C501        C  0.84199347  0.73223073  0.86777477    -0.03500
C502        C  0.83619973  0.71510279  0.85943554    -0.40100
H503        H  0.86308266  0.74967040  0.88653848     0.12700
H504        H  0.84002074  0.74664197  0.90382743     0.12300
H505        H  0.76500535  0.70514551  0.88981062     0.11800
H506        H  0.78780762  0.70852072  0.87249084     0.12000
H507        H  0.76200443  0.72612815  0.90830312     0.14800
H508        H  0.82297536  0.71933063  0.91790628     0.13500
H509        H  0.85840271  0.74915025  0.86707304     0.11200
H510        H  0.82101525  0.69711449  0.86016898     0.13200
C511        C  0.38179566  0.23164598  0.00269722     0.19300
C512        C  0.41126445  0.22370174  0.00300451    -0.18800
C513        C  0.42523377  0.21351847  0.99395212    -0.11100
C514        C  0.40975694  0.21067698  0.98441792     0.21600
C515        C  0.38053767  0.21943593  0.98405169    -0.20400
C516        C  0.36659965  0.22961378  0.99308760    -0.11200
C517        C  0.42244600  0.19743583  0.97480648    -0.15400
C518        C  0.44543360  0.17936261  0.97489841    -0.29300
C519        C  0.36734550  0.24044280  0.01264685    -0.03500
C520        C  0.34307955  0.25672980  0.01299411    -0.40100
H521        H  0.42347856  0.22519682  0.01030420     0.12700
H522        H  0.44798922  0.20780174  0.99451680     0.12300
H523        H  0.36809701  0.21742766  0.97681690     0.11800
H524        H  0.34370832  0.23483922  0.99255808     0.12000
H525        H  0.41054191  0.20059026  0.96749238     0.14800
H526        H  0.45748171  0.17533114  0.98211212     0.13500
H527        H  0.37766548  0.23383752  0.01997807     0.11200
H528        H  0.33353126  0.26527043  0.00579964     0.13200
C529        C  0.31946139  0.07878742  0.89493358     0.19300
C530        C  0.30583560  0.10259526  0.89006294    -0.18800
C531        C  0.28588759  0.09838150  0.88184404    -0.11100
C532        C  0.27897687  0.07011715  0.87838534     0.21600
C533        C  0.29136152  0.04628687  0.88364414    -0.20400
C534        C  0.31143553  0.05049531  0.89180910    -0.11200
C535        C  0.25920512  0.06459095  0.86930963    -0.15400
C536        C  0.25617459  0.08329394  0.86120529    -0.29300
C537        C  0.34184696  0.08430123  0.90320458    -0.03500
C538        C  0.36328218  0.06538560  0.90547436    -0.40100
H539        H  0.31111759  0.12458634  0.89247369     0.12700
H540        H  0.27593378  0.11726205  0.87824825     0.12300
H541        H  0.28595739  0.02428888  0.88127099     0.11800
H542        H  0.32046978  0.03152662  0.89565069     0.12000
H543        H  0.24872675  0.04341358  0.86889280     0.14800
H544        H  0.26801568  0.10376346  0.86120215     0.13500
H545        H  0.34156276  0.10529038  0.90711591     0.11200
H546        H  0.36470976  0.04494295  0.90125127     0.13200
C547        C  0.60778978  0.88450966  0.94959857     0.19300
C548        C  0.58922384  0.88512232  0.94079576    -0.18800
C549        C  0.57031813  0.90844971  0.93916121    -0.11100
C550        C  0.56984498  0.93194116  0.94620001     0.21600
C551        C  0.58787911  0.93104301  0.95518335    -0.20400
C552        C  0.60678649  0.90770536  0.95682367    -0.11200
C553        C  0.55013711  0.95672658  0.94391385    -0.15400
C554        C  0.55371885  0.98351515  0.94798983    -0.29300
C555        C  0.62883496  0.86014939  0.95060432    -0.03500
C556        C  0.64268965  0.85319206  0.95962329    -0.40100
H557        H  0.58952201  0.86758327  0.93510521     0.12700
H558        H  0.55641548  0.90840890  0.93224286     0.12300
H559        H  0.58754509  0.94820162  0.96099427     0.11800
H560        H  0.62098961  0.90847017  0.96362387     0.12000
H561        H  0.53243235  0.95281865  0.93840905     0.14800
H562        H  0.57171361  0.98821267  0.95326394     0.13500
H563        H  0.63311897  0.84753996  0.94355233     0.11200
H564        H  0.63816544  0.86483425  0.96685514     0.13200
C565        C  0.11411944  0.50568971  0.45390989     0.19300
C566        C  0.09578676  0.50832919  0.46272260    -0.18800
C567        C  0.07837501  0.53307948  0.46405824    -0.11100
C568        C  0.07917143  0.55581648  0.45659373     0.21600
C569        C  0.09784531  0.55323083  0.44790029    -0.20400
C570        C  0.11515954  0.52868168  0.44658160    -0.11200
C571        C  0.06137023  0.58276628  0.45732348    -0.15400
C572        C  0.04045808  0.58813297  0.46450607    -0.29300
C573        C  0.13288106  0.47948694  0.45283306    -0.03500
C574        C  0.14490186  0.47139273  0.44360976    -0.40100
H575        H  0.09489091  0.49116013  0.46857722     0.12700
H576        H  0.06461691  0.53420561  0.47094925     0.12300
H577        H  0.09921208  0.57044928  0.44206936     0.11800
H578        H  0.12975280  0.52834393  0.43991185     0.12000
H579        H  0.06556451  0.59907437  0.45132289     0.14800
H580        H  0.03569249  0.57269991  0.47073662     0.13500
H581        H  0.13706352  0.46668305  0.45987524     0.11200
H582        H  0.14008809  0.48320580  0.43641638     0.13200
C583        C  0.98573877  0.73097887  0.27483263     0.19300
C584        C  0.01211803  0.71679343  0.27283936    -0.18800
C585        C  0.03104197  0.72743459  0.26511032    -0.11100
C586        C  0.02424753  0.75300257  0.25956480     0.21600
C587        C  0.99835114  0.76773790  0.26180354    -0.20400
C588        C  0.97895120  0.75653829  0.26926759    -0.11200
C589        C  0.04439415  0.76491373  0.25162061    -0.15400
C590        C  0.05460507  0.74840847  0.24375569    -0.29300
C591        C  0.96618351  0.71985723  0.28314273    -0.03500
C592        C  0.93745564  0.71665705  0.28154410    -0.40100
H593        H  0.01786918  0.69730685  0.27717758     0.12700
H594        H  0.05122400  0.71607526  0.26359627     0.12300
H595        H  0.99298600  0.78766487  0.25766554     0.11800
H596        H  0.95897206  0.76814357  0.27087355     0.12000
H597        H  0.04948212  0.78800295  0.25187418     0.14800
H598        H  0.04716975  0.72606833  0.24291172     0.13500
H599        H  0.97575352  0.71344304  0.29063896     0.11200
H600        H  0.92824538  0.72051146  0.27376457     0.13200
C601        C  0.91738844  0.76883237  0.39918977     0.19300
C602        C  0.88796028  0.77040395  0.39628193    -0.18800
C603        C  0.87970614  0.76842983  0.38567219    -0.11100
C604        C  0.90090172  0.76502397  0.37775427     0.21600
C605        C  0.93039761  0.76563265  0.38063931    -0.20400
C606        C  0.93861167  0.76751369  0.39122920    -0.11200
C607        C  0.89344770  0.75983613  0.36648603    -0.15400
C608        C  0.86767751  0.74910035  0.36323191    -0.29300
C609        C  0.92511921  0.76690381  0.41054699    -0.03500
C610        C  0.94807817  0.75136585  0.41394414    -0.40100
H611        H  0.87123161  0.77200370  0.40226526     0.12700
H612        H  0.85678529  0.76926917  0.38377242     0.12300
H613        H  0.94719442  0.76367413  0.37469828     0.11800
H614        H  0.96156451  0.76746019  0.39315473     0.12000
H615        H  0.91076146  0.76273063  0.36075808     0.14800
H616        H  0.85031387  0.74512601  0.36883674     0.13500
H617        H  0.90986002  0.77568340  0.41623448     0.11200
H618        H  0.96238833  0.74103308  0.40828212     0.13200
C619        C  0.44280816  0.31241208  0.26445490     0.19300
C620        C  0.42624356  0.28722994  0.26632778    -0.18800
C621        C  0.41848867  0.26865754  0.25808566    -0.11100
C622        C  0.42727527  0.27473018  0.24768465     0.21600
C623        C  0.44341568  0.30019171  0.24574446    -0.20400
C624        C  0.45118461  0.31885693  0.25401914    -0.11200
C625        C  0.41916030  0.25565075  0.23866045    -0.15400
C626        C  0.41101354  0.22762200  0.23976905    -0.29300
C627        C  0.45007825  0.33124110  0.27364978    -0.03500
C628        C  0.47004479  0.35276803  0.27360985    -0.40100
H629        H  0.41913785  0.28186960  0.27424616     0.12700
H630        H  0.40513000  0.24995583  0.25993670     0.12300
H631        H  0.45008969  0.30565552  0.23778553     0.11800
H632        H  0.46333175  0.33833774  0.25213340     0.12000
H633        H  0.42061327  0.26496454  0.23079914     0.14800
H634        H  0.41083172  0.21741792  0.24748537     0.13500
H635        H  0.43894051  0.32625877  0.28097666     0.11200
H636        H  0.48219440  0.35786175  0.26652249     0.13200
C637        C  0.36507965  0.36968874  0.38705730     0.19300
C638        C  0.39553864  0.36916602  0.38791291    -0.18800
C639        C  0.41305929  0.37339795  0.37899534    -0.11100
C640        C  0.40033205  0.37785479  0.36900391     0.21600
C641        C  0.36987362  0.37748630  0.36814079    -0.20400
C642        C  0.35242385  0.37354113  0.37704416    -0.11200
C643        C  0.41776651  0.38177094  0.35921851    -0.15400
C644        C  0.44554101  0.39120932  0.35902708    -0.29300
C645        C  0.34691578  0.36572633  0.39664920    -0.03500
C646        C  0.32102727  0.37895025  0.39775086    -0.40100
H647        H  0.40578795  0.36578499  0.39551921     0.12700
H648        H  0.43643770  0.37261892  0.37995126     0.12300
H649        H  0.35948645  0.38036223  0.36052946     0.11800
H650        H  0.32903061  0.37308157  0.37603421     0.12000
H651        H  0.40664506  0.37783419  0.35178884     0.14800
H652        H  0.45657764  0.39710988  0.36629116     0.13500
H653        H  0.35569278  0.35291751  0.40311913     0.11200
H654        H  0.31329662  0.39355610  0.39161756     0.13200
C655        C  0.69585492  0.58271303  0.31908918     0.19300
C656        C  0.66620112  0.58860664  0.31762356    -0.18800
C657        C  0.64564549  0.56614838  0.31813154    -0.11100
C658        C  0.65439707  0.53756893  0.32045465     0.21600
C659        C  0.68398239  0.53180126  0.32217724    -0.20400
C660        C  0.70464902  0.55410687  0.32133335    -0.11200
C661        C  0.63282269  0.51372224  0.32135659    -0.15400
C662        C  0.61148175  0.51029552  0.31421717    -0.29300
C663        C  0.71713779  0.60689930  0.31888498    -0.03500
C664        C  0.74262287  0.60498651  0.31376461    -0.40100
H665        H  0.65898868  0.61059829  0.31601416     0.12700
H666        H  0.62286186  0.57118871  0.31695107     0.12300
H667        H  0.69110748  0.50994999  0.32406401     0.11800
H668        H  0.72738094  0.54919631  0.32270514     0.12000
H669        H  0.63564054  0.49767680  0.32758116     0.14800
H670        H  0.61045958  0.52466357  0.30740938     0.13500
H671        H  0.71115344  0.62718356  0.32268443     0.11200
H672        H  0.74750874  0.58576156  0.30913157     0.13200
C673        C  0.82189913  0.75930960  0.50152791     0.19300
C674        C  0.80439015  0.78384670  0.49973456    -0.18800
C675        C  0.78172014  0.79093797  0.50661795    -0.11100
C676        C  0.77600417  0.77360700  0.51555543     0.21600
C677        C  0.79340895  0.74898948  0.51732011    -0.20400
C678        C  0.81602769  0.74186441  0.51042784    -0.11200
C679        C  0.75187218  0.77966480  0.52310057    -0.15400
C680        C  0.73594088  0.80427407  0.52325559    -0.29300
C681        C  0.84506467  0.75232976  0.49368513    -0.03500
C682        C  0.86537628  0.73147463  0.49495056    -0.40100
H683        H  0.80811382  0.79755280  0.49289957     0.12700
H684        H  0.76864641  0.80973658  0.50474170     0.12300
H685        H  0.78940101  0.73502639  0.52406513     0.11800
H686        H  0.82832218  0.72240464  0.51209072     0.12000
H687        H  0.74723533  0.76288182  0.52889645     0.14800
H688        H  0.74018537  0.82172196  0.51771494     0.13500
H689        H  0.84517309  0.76503356  0.48645536     0.11200
H690        H  0.86636148  0.71872947  0.50213348     0.13200
C691        C  0.25922973  0.26255642  0.49330849     0.19300
C692        C  0.25742647  0.27183883  0.50380835    -0.18800
C693        C  0.26397019  0.25284965  0.51209414    -0.11100
C694        C  0.27185114  0.22381950  0.51003279     0.21600
C695        C  0.27316421  0.21444873  0.49950959    -0.20400
C696        C  0.26683249  0.23353278  0.49122232    -0.11200
C697        C  0.27994645  0.20300751  0.51854063    -0.15400
C698        C  0.27319186  0.20675418  0.52877226    -0.29300
C699        C  0.25279666  0.28361173  0.48475113    -0.03500
C700        C  0.26544057  0.28236420  0.47520692    -0.40100
H701        H  0.25158939  0.29411092  0.50560068     0.12700
H702        H  0.26342793  0.26134668  0.52002867     0.12300
H703        H  0.27910742  0.19223234  0.49768754     0.11800
H704        H  0.26762721  0.22542635  0.48322099     0.12000
H705        H  0.29173908  0.18362845  0.51621194     0.14800
H706        H  0.26037444  0.22525737  0.53125701     0.13500
H707        H  0.23840166  0.30157891  0.48660188     0.11200
H708        H  0.28125972  0.26551427  0.47351140     0.13200
C709        C  0.49557830  0.95173574  0.55432931     0.19300
C710        C  0.46542599  0.94764392  0.55331912    -0.18800
C711        C  0.44634395  0.97101416  0.55458398    -0.11100
C712        C  0.45711975  0.99875436  0.55716500     0.21600
C713        C  0.48724688  0.00286958  0.55816010    -0.20400
C714        C  0.50637348  0.97966272  0.55663988    -0.11200
C715        C  0.43722513  0.02301800  0.55968451    -0.15400
C716        C  0.41247217  0.02768898  0.55431207    -0.29300
C717        C  0.51508074  0.92616282  0.55390836    -0.03500
C718        C  0.54247461  0.92752955  0.55020806    -0.40100
H719        H  0.45661674  0.92622910  0.55168280     0.12700
H720        H  0.42314446  0.96712306  0.55398846     0.12300
H721        H  0.49595539  0.02401841  0.56025055     0.11800
H722        H  0.52946504  0.98333157  0.55773118     0.12000
H723        H  0.44358249  0.03796809  0.56591221     0.14800
H724        H  0.40734091  0.01459416  0.54743084     0.13500
H725        H  0.50642202  0.90549098  0.55666831     0.11200
H726        H  0.55053153  0.94746388  0.54663213     0.13200
C727        C  0.80830922  0.66836108  0.75761705     0.19300
C728        C  0.79973688  0.68687350  0.74939638    -0.18800
C729        C  0.77925712  0.67777067  0.74194326    -0.11100
C730        C  0.76730118  0.64953023  0.74241538     0.21600
C731        C  0.77635402  0.63078306  0.75053230    -0.20400
C732        C  0.79675454  0.63998665  0.75803706    -0.11200
C733        C  0.74445780  0.63942161  0.73491453    -0.15400
C734        C  0.73974943  0.65201180  0.72547938    -0.29300
C735        C  0.82862235  0.67980862  0.76573300    -0.03500
C736        C  0.82836628  0.67058310  0.77579482    -0.40100
H737        H  0.80822830  0.70885807  0.74892949     0.12700
H738        H  0.77234908  0.69334558  0.73606699     0.12300
H739        H  0.76753973  0.60894850  0.75108932     0.11800
H740        H  0.80342409  0.62483170  0.76410959     0.12000
H741        H  0.73115716  0.62095198  0.73725972     0.14800
H742        H  0.75365285  0.66958000  0.72277778     0.13500
H743        H  0.84227632  0.69818826  0.76356135     0.11200
H744        H  0.81361412  0.65332427  0.77819943     0.13200
C745        C  0.60509124  0.73062317  0.61334785     0.19300
C746        C  0.60637808  0.74526186  0.62302447    -0.18800
C747        C  0.60876805  0.72966938  0.63245289    -0.11100
C748        C  0.60945662  0.69909172  0.63234272     0.21600
C749        C  0.60653091  0.68445330  0.62270065    -0.20400
C750        C  0.60462794  0.70005992  0.61325949    -0.11200
C751        C  0.61279403  0.68189710  0.64214548    -0.15400
C752        C  0.62819936  0.69144998  0.65048197    -0.29300
C753        C  0.60431703  0.74770868  0.60346391    -0.03500
C754        C  0.61873942  0.73930071  0.59478950    -0.40100
H755        H  0.60623837  0.76881739  0.62326231     0.12700
H756        H  0.60988659  0.74156950  0.63980198     0.12300
H757        H  0.60639116  0.66089648  0.62245875     0.11800
H758        H  0.60273153  0.68824862  0.60590531     0.12000
H759        H  0.60365652  0.66008334  0.64223902     0.14800
H760        H  0.63926181  0.71234054  0.65015723     0.13500
H761        H  0.59363133  0.76875531  0.60360871     0.11200
H762        H  0.63162166  0.71951942  0.59493665     0.13200
C763        C  0.23011696  0.17834018  0.77005843     0.19300
C764        C  0.24085566  0.20641985  0.77203693    -0.18800
C765        C  0.24946277  0.22454133  0.76375587    -0.11100
C766        C  0.24781816  0.21475005  0.75327200     0.21600
C767        C  0.23628941  0.18699374  0.75126260    -0.20400
C768        C  0.22767796  0.16885371  0.75954655    -0.11200
C769        C  0.25814875  0.23238214  0.74420413    -0.15400
C770        C  0.27669339  0.25501565  0.74503425    -0.29300
C771        C  0.22331726  0.15938070  0.77922492    -0.03500
C772        C  0.20781581  0.13454795  0.77866758    -0.40100
H773        H  0.24281120  0.21432793  0.78005292     0.12700
H774        H  0.25730700  0.24608812  0.76565985     0.12300
H775        H  0.23466231  0.17897108  0.74324974     0.11800
H776        H  0.22004146  0.14725108  0.75763122     0.12000
H777        H  0.25122430  0.22528772  0.73643670     0.14800
H778        H  0.28457688  0.26220803  0.75265756     0.13500
H779        H  0.23142985  0.16651402  0.78683630     0.11200
H780        H  0.19815285  0.12751563  0.77129826     0.13200
C781        C  0.28631835  0.19974937  0.62695833     0.19300
C782        C  0.27658431  0.22837266  0.62835595    -0.18800
C783        C  0.27702714  0.24120468  0.63832725    -0.11100
C784        C  0.28705697  0.22549713  0.64712979     0.21600
C785        C  0.29554649  0.19646115  0.64583659    -0.20400
C786        C  0.29530277  0.18366492  0.63584704    -0.11200
C787        C  0.28892403  0.23878938  0.65773562    -0.15400
C788        C  0.29521929  0.26708136  0.65915177    -0.29300
C789        C  0.28679372  0.18764949  0.61612037    -0.03500
C790        C  0.30443271  0.16586027  0.61317616    -0.40100
H791        H  0.26909049  0.24104611  0.62167213     0.12700
H792        H  0.26939981  0.26333816  0.63912700     0.12300
H793        H  0.30290475  0.18380917  0.65254931     0.11800
H794        H  0.30195282  0.16121420  0.63517245     0.12000
H795        H  0.28748097  0.22441828  0.66453046     0.14800
H796        H  0.29915905  0.28108906  0.65239252     0.13500
H797        H  0.27344425  0.19840098  0.61021960     0.11200
H798        H  0.31884077  0.15563135  0.61885313     0.13200
C799        C  0.45302002  0.45519333  0.69827732     0.19300
C800        C  0.45452799  0.47420234  0.68962826    -0.18800
C801        C  0.47596297  0.49573298  0.68913894    -0.11100
C802        C  0.49670076  0.49861356  0.69722535     0.21600
C803        C  0.49504996  0.47970533  0.70597360    -0.20400
C804        C  0.47350506  0.45817506  0.70646845    -0.11200
C805        C  0.52001314  0.52088213  0.69589696    -0.15400
C806        C  0.54263435  0.52479516  0.70253579    -0.29300
C807        C  0.43043306  0.43203491  0.69820093    -0.03500
C808        C  0.42075500  0.41823184  0.70689693    -0.40100
H809        H  0.43908266  0.47233871  0.68319084     0.12700
H810        H  0.47659991  0.50991889  0.68230281     0.12300
H811        H  0.51036934  0.48095342  0.71241771     0.11800
H812        H  0.47353095  0.44352985  0.71315609     0.12000
H813        H  0.51875976  0.53429284  0.68885551     0.14800
H814        H  0.54455821  0.51237121  0.70975786     0.13500
H815        H  0.42065217  0.42697099  0.69062318     0.11200
H816        H  0.42918357  0.42386735  0.71462360     0.13200
loop_ 
_geom_bond_atom_site_label_1 
_geom_bond_atom_site_label_2 
_geom_bond_distance 
_geom_bond_site_symmetry_2 
_ccdc_geom_bond_type 
N1            N2   1.322       .  A
N1            C5   1.347       .  A
N1           Cu9   2.079       .  S
N2            C3   1.340       .  A
N2           Cu8   2.057       .  S
C3            C4   1.382       .  A
C3            H6   1.080       .  S
C4            C5   1.385       .  A
C4          C770   1.475       .  S
C5            H7   1.082       .  S
Cu8          N11   2.056       .  S
Cu9          N19   2.079       .  S
Cu10         N12   2.067       .  S
Cu10         N18   2.068       .  S
N11          N12   1.319       .  A
N11          C15   1.343       .  A
N12          C13   1.344       .  A
C13          C14   1.382       .  A
C13          H16   1.082       .  S
C14          C15   1.385       .  A
C14         C788   1.473       .  S
C15          H17   1.082       .  S
N18          N19   1.323       .  A
N18          C22   1.342       .  A
N19          C20   1.347       .  A
C20          C21   1.384       .  A
C20          H23   1.082       .  S
C21          C22   1.384       .  A
C21         C808   1.478       .  S
C22          H24   1.081       .  S
N25          N26   1.323       .  A
N25          C29   1.348       .  A
N25         Cu33   2.084       .  S
N26          C27   1.342       .  A
N26         Cu32   2.070       .  S
C27          C28   1.379       .  A
C27          H30   1.082       .  S
C28          C29   1.388       .  A
C28         C734   1.476       .  S
C29          H31   1.082       .  S
Cu32         N35   2.069       .  S
Cu33         N43   2.084       .  S
Cu34         N36   2.053       .  S
Cu34         N42   2.054       .  S
N35          N36   1.320       .  A
N35          C39   1.345       .  A
N36          C37   1.341       .  A
C37          C38   1.383       .  A
C37          H40   1.081       .  S
C38          C39   1.383       .  A
C38         C752   1.473       .  S
C39          H41   1.082       .  S
N42          N43   1.321       .  A
N42          C46   1.341       .  A
N43          C44   1.347       .  A
C44          C45   1.385       .  A
C44          H47   1.082       .  S
C45          C46   1.383       .  A
C45         C806   1.478       .  S
C46          H48   1.081       .  S
N49          N50   1.322       .  A
N49          C53   1.344       .  A
N49         Cu57   2.070       .  S
N50          C51   1.346       .  A
N50         Cu56   2.073       .  S
C51          C52   1.385       .  A
C51          H54   1.083       .  S
C52          C53   1.380       .  A
C52         C716   1.474       .  S
C53          H55   1.082       .  S
Cu56         N59   2.073       .  S
Cu57         N67   2.070       .  S
Cu58         N60   2.070       .  S
Cu58         N66   2.070       .  S
N59          N60   1.322       .  A
N59          C63   1.344       .  A
N60          C61   1.344       .  A
C61          C62   1.386       .  A
C61          H64   1.081       .  S
C62          C63   1.381       .  A
C62         C790   1.475       .  S
C63          H65   1.082       .  S
N66          N67   1.321       .  A
N66          C70   1.344       .  A
N67          C68   1.345       .  A
C68          C69   1.386       .  A
C68          H71   1.081       .  S
C69          C70   1.382       .  A
C69         C698   1.477       .  S
C70          H72   1.082       .  S
N73          N74   1.323       .  A
N73          C77   1.348       .  A
N73         Cu81   2.090       .  S
N74          C75   1.342       .  A
N74         Cu80   2.062       .  S
C75          C76   1.382       .  A
C75          H78   1.082       .  S
C76          C77   1.385       .  A
C76         C718   1.477       .  S
C77          H79   1.082       .  S
Cu80         N83   2.061       .  S
Cu81         N91   2.091       .  S
Cu82         N84   2.068       .  S
Cu82         N90   2.069       .  S
N83          N84   1.320       .  A
N83          C87   1.343       .  A
N84          C85   1.344       .  A
C85          C86   1.382       .  A
C85          H88   1.082       .  S
C86          C87   1.384       .  A
C86         C754   1.473       .  S
C87          H89   1.082       .  S
N90          N91   1.323       .  A
N90          C94   1.344       .  A
N91          C92   1.348       .  A
C92          C93   1.386       .  A
C92          H95   1.082       .  S
C93          C94   1.385       .  A
C93         C680   1.483       .  S
C94          H96   1.081       .  S
N97          N98   1.321       .  A
N97         C101   1.347       .  A
N97        Cu105   2.076       .  S
N98          C99   1.344       .  A
N98        Cu104   2.075       .  S
C99         C100   1.388       .  A
C99         H102   1.081       .  S
C100        C101   1.385       .  A
C100        C628   1.483       .  S
C101        H103   1.082       .  S
Cu104       N107   2.075       .  S
Cu105       N115   2.077       .  S
Cu106       N108   2.081       .  S
Cu106       N114   2.081       .  S
N107        N108   1.322       .  A
N107        C111   1.345       .  A
N108        C109   1.347       .  A
C109        C110   1.384       .  A
C109        H112   1.082       .  S
C110        C111   1.386       .  A
C110        C644   1.482       .  S
C111        H113   1.081       .  S
N114        N115   1.324       .  A
N114        C118   1.347       .  A
N115        C116   1.344       .  A
C116        C117   1.380       .  A
C116        H119   1.082       .  S
C117        C118   1.385       .  A
C117        C662   1.474       .  S
C118        H120   1.083       .  S
N121        N122   1.323       .  A
N121        C125   1.347       .  A
N121       Cu129   2.081       .  S
N122        C123   1.343       .  A
N122       Cu128   2.071       .  S
C123        C124   1.382       .  A
C123        H126   1.082       .  S
C124        C125   1.383       .  A
C124        C592   1.474       .  S
C125        H127   1.082       .  S
Cu128       N131   2.072       .  S
Cu129       N139   2.082       .  S
Cu130       N132   2.071       .  S
Cu130       N138   2.071       .  S
N131        N132   1.321       .  A
N131        C135   1.345       .  A
N132        C133   1.344       .  A
C133        C134   1.382       .  A
C133        H136   1.082       .  S
C134        C135   1.388       .  A
C134        C608   1.479       .  S
C135        H137   1.081       .  S
N138        N139   1.323       .  A
N138        C142   1.344       .  A
N139        C140   1.347       .  A
C140        C141   1.383       .  A
C140        H143   1.082       .  S
C141        C142   1.383       .  A
C141        C664   1.476       .  S
C142        H144   1.083       .  S
N145        N146   1.323       .  A
N145        C149   1.344       .  A
N145       Cu153   2.070       .  S
N146        C147   1.345       .  A
N146       Cu152   2.079       .  S
C147        C148   1.382       .  A
C147        H150   1.082       .  S
C148        C149   1.385       .  A
C148        C700   1.476       .  S
C149        H151   1.081       .  S
Cu152       N155   2.079       .  S
Cu153       N163   2.069       .  S
Cu154       N156   2.071       .  S
Cu154       N162   2.072       .  S
N155        N156   1.322       .  A
N155        C159   1.348       .  A
N156        C157   1.343       .  A
C157        C158   1.380       .  A
C157        H160   1.083       .  S
C158        C159   1.387       .  A
C158        C646   1.477       .  S
C159        H161   1.081       .  S
N162        N163   1.321       .  A
N162        C166   1.343       .  A
N163        C164   1.346       .  A
C164        C165   1.386       .  A
C164        H167   1.082       .  S
C165        C166   1.382       .  A
C165        C574   1.476       .  S
C166        H168   1.082       .  S
N169        N170   1.324       .  A
N169        C173   1.347       .  A
N169       Cu177   2.092       .  S
N170        C171   1.345       .  A
N170       Cu176   2.072       .  S
C171        C172   1.385       .  A
C171        H174   1.081       .  S
C172        C173   1.385       .  A
C172        C682   1.482       .  S
C173        H175   1.082       .  S
Cu176       N179   2.071       .  S
Cu177       N187   2.091       .  S
Cu178       N180   2.066       .  S
Cu178       N186   2.066   1_655  S
N179        N180   1.321       .  A
N179        C183   1.346       .  A
N180        C181   1.343       .  A
C181        C182   1.381       .  A
C181        H184   1.082       .  S
C182        C183   1.387       .  A
C182        C610   1.475       .  S
C183        H185   1.081       .  S
N186        N187   1.321   1_455  A
N186        C190   1.342       .  A
N187        C188   1.350   1_655  A
C188        C189   1.388       .  A
C188        H191   1.081   1_455  S
C189        C190   1.386       .  A
C189        C572   1.485       .  S
C190        H192   1.081       .  S
N193        N194   1.323       .  A
N193        C197   1.346       .  A
N193       Cu201   2.071       .  S
N194        C195   1.342       .  A
N194       Cu200   2.075       .  S
C195        C196   1.386       .  A
C195        H198   1.081       .  S
C196        C197   1.383       .  A
C196        C518   1.477       .  S
C197        H199   1.082       .  S
Cu200       N203   2.075       .  S
Cu201       N211   2.071       .  S
Cu202       N204   2.069       .  S
Cu202       N210   2.069       .  S
N203        N204   1.321       .  A
N203        C207   1.347       .  A
N204        C205   1.343       .  A
C205        C206   1.382       .  A
C205        H208   1.082       .  S
C206        C207   1.388       .  A
C206        C538   1.479       .  S
C207        H209   1.081       .  S
N210        N211   1.322       .  A
N210        C214   1.343       .  A
N211        C212   1.345       .  A
C212        C213   1.382       .  A
C212        H215   1.082       .  S
C213        C214   1.385       .  A
C213        C554   1.476   1_545  S
C214        H216   1.081   1_545  S
N217        N218   1.323       .  A
N217        C221   1.345       .  A
N217       Cu225   2.072       .  S
N218        C219   1.345       .  A
N218       Cu224   2.077       .  S
C219        C220   1.386       .  A
C219        H222   1.081       .  S
C220        C221   1.382       .  A
C220        C556   1.477       .  S
C221        H223   1.082       .  S
Cu224       N227   2.076       .  S
Cu225       N235   2.071       .  S
Cu226       N228   2.057       .  S
Cu226       N234   2.057       .  S
N227        N228   1.321       .  A
N227        C231   1.344       .  A
N228        C229   1.343       .  A
C229        C230   1.380       .  A
C229        H232   1.083       .  S
C230        C231   1.387       .  A
C230        C500   1.474       .  S
C231        H233   1.082       .  S
N234        N235   1.321       .  A
N234        C238   1.340       .  A
N235        C236   1.346       .  A
C236        C237   1.383       .  A
C236        H239   1.082       .  S
C237        C238   1.384       .  A
C237        C482   1.475   1_556  S
C238        H240   1.081       .  S
N241        N242   1.322       .  A
N241        C245   1.346       .  A
N241       Cu249   2.072       .  S
N242        C243   1.342       .  A
N242       Cu248   2.068       .  S
C243        C244   1.385       .  A
C243        H246   1.081       .  S
C244        C245   1.383       .  A
C244        C772   1.476       .  S
C245        H247   1.082       .  S
Cu248       N251   2.068       .  S
Cu249       N259   2.073       .  S
Cu250       N252   2.072       .  S
Cu250       N258   2.072       .  S
N251        N252   1.321       .  A
N251        C255   1.344       .  A
N252        C253   1.346       .  A
C253        C254   1.388       .  A
C253        H256   1.081       .  S
C254        C255   1.382       .  A
C254        C536   1.478       .  S
C255        H257   1.082       .  S
N258        N259   1.323       .  A
N258        C262   1.343   1_545  A
N259        C260   1.346   1_545  A
C260        C261   1.386       .  A
C260        H263   1.081       .  S
C261        C262   1.380       .  A
C261        C466   1.475       .  S
C262        H264   1.082       .  S
N265        N266   1.322       .  A
N265        C269   1.346       .  A
N265       Cu273   2.079       .  S
N266        C267   1.342       .  A
N266       Cu272   2.065       .  S
C267        C268   1.384       .  A
C267        H270   1.082       .  S
C268        C269   1.385       .  A
C268        C464   1.478       .  S
C269        H271   1.082       .  S
Cu272       N275   2.065       .  S
Cu273       N283   2.080       .  S
Cu274       N276   2.069       .  S
Cu274       N282   2.069       .  S
N275        N276   1.320       .  A
N275        C279   1.343       .  A
N276        C277   1.345       .  A
C277        C278   1.383       .  A
C277        H280   1.082       .  S
C278        C279   1.386       .  A
C278        C502   1.477       .  S
C279        H281   1.081       .  S
N282        N283   1.323       .  A
N282        C286   1.343       .  A
N283        C284   1.346       .  A
C284        C285   1.387       .  A
C284        H287   1.081       .  S
C285        C286   1.379       .  A
C285        C736   1.476       .  S
C286        H288   1.082       .  S
N289        N290   1.322       .  A
N289        C293   1.346       .  A
N289       Cu297   2.078       .  S
N290        C291   1.343       .  A
N290       Cu296   2.062       .  S
C291        C292   1.384       .  A
C291        H294   1.081       .  S
C292        C293   1.383       .  A
C292        C520   1.476       .  S
C293        H295   1.082       .  S
Cu296       N299   2.062       .  S
Cu297       N307   2.079       .  S
Cu298       N300   2.069       .  S
Cu298       N306   2.070       .  S
N299        N300   1.321       .  A
N299        C303   1.343       .  A
N300        C301   1.344       .  A
C301        C302   1.386       .  A
C301        H304   1.081       .  S
C302        C303   1.380       .  A
C302        C430   1.473       .  S
C303        H305   1.081       .  S
N306        N307   1.322       .  A
N306        C310   1.345       .  A
N307        C308   1.345       .  A
C308        C309   1.382       .  A
C308        H311   1.082       .  S
C309        C310   1.384       .  A
C309        C446   1.474       .  S
C310        H312   1.082       .  S
N313        N314   1.321       .  A
N313        C317   1.346       .  A
N313       Cu321   2.069   1_455  S
N314        C315   1.341       .  A
N314       Cu320   2.062       .  S
C315        C316   1.383       .  A
C315        H318   1.082       .  S
C316        C317   1.383       .  A
C316        C448   1.474       .  S
C317        H319   1.082       .  S
Cu320       N323   2.062       .  S
Cu321       N331   2.069       .  S
Cu322       N324   2.066   1_655  S
Cu322       N330   2.067       .  S
N323        N324   1.321       .  A
N323        C327   1.343       .  A
N324        C325   1.344       .  A
C325        C326   1.381       .  A
C325        H328   1.082       .  S
C326        C327   1.385       .  A
C326        C410   1.473       .  S
C327        H329   1.081       .  S
N330        N331   1.322       .  A
N330        C334   1.344       .  A
N331        C332   1.343       .  A
C332        C333   1.380       .  A
C332        H335   1.082       .  S
C333        C334   1.385       .  A
C333        C484   1.473       .  S
C334        H336   1.081       .  S
N337        N338   1.323       .  A
N337        C341   1.346       .  A
N337       Cu345   2.076       .  S
N338        C339   1.341       .  A
N338       Cu344   2.063       .  S
C339        C340   1.378       .  A
C339        H342   1.082       .  S
C340        C341   1.385       .  A
C340        C392   1.470       .  S
C341        H343   1.082       .  S
Cu344       N347   2.064       .  S
Cu345       N355   2.076       .  S
Cu346       N348   2.064       .  S
Cu346       N354   2.066       .  S
N347        N348   1.320       .  A
N347        C351   1.344       .  A
N348        C349   1.343       .  A
C349        C350   1.381       .  A
C349        H352   1.082       .  S
C350        C351   1.386       .  A
C350        C428   1.473       .  S
C351        H353   1.082       .  S
N354        N355   1.322       .  A
N354        C358   1.344       .  A
N355        C356   1.345       .  A
C356        C357   1.383       .  A
C356        H359   1.082       .  S
C357        C358   1.385       .  A
C357        C626   1.477       .  S
C358        H360   1.081       .  S
N361        N362   1.321       .  A
N361        C365   1.344       .  A
N361       Cu369   2.068       .  S
N362        C363   1.342       .  A
N362       Cu368   2.060       .  S
C363        C364   1.385       .  A
C363        H366   1.081       .  S
C364        C365   1.382       .  A
C364        C394   1.474       .  S
C365        H367   1.081       .  S
Cu368       N371   2.059       .  S
Cu369       N379   2.068       .  S
Cu370       N372   2.064       .  S
Cu370       N378   2.065       .  S
N371        N372   1.321       .  A
N371        C375   1.343       .  A
N372        C373   1.342       .  A
C373        C374   1.386       .  A
C373        H376   1.081       .  S
C374        C375   1.380       .  A
C374        C412   1.473       .  S
C375        H377   1.082       .  S
N378        N379   1.322       .  A
N378        C382   1.344       .  A
N379        C380   1.343       .  A
C380        C381   1.383       .  A
C380        H383   1.082       .  S
C381        C382   1.380       .  A
C381        C590   1.470       .  S
C382        H384   1.082       .  S
C385        C386   1.403       .  A
C385        C390   1.409       .  A
C385        C393   1.483       .  S
C386        C387   1.394       .  A
C386        H395   1.083       .  S
C387        C388   1.405       .  A
C387        H396   1.083       .  S
C388        C389   1.401       .  A
C388        C391   1.479   1_565  S
C389        C390   1.397       .  A
C389        H397   1.083       .  S
C390        H398   1.081       .  S
C391        H399   1.086       .  S
C391        C392   1.343       .  D
C392        H400   1.086       .  S
C393        H401   1.086       .  S
C393        C394   1.344       .  D
C394        H402   1.084       .  S
C403        C404   1.402       .  A
C403        C408   1.408       .  A
C403        C411   1.481       .  S
C404        C405   1.394       .  A
C404        H413   1.083       .  S
C405        C406   1.406       .  A
C405        H414   1.082       .  S
C406        C407   1.402       .  A
C406        C409   1.481       .  S
C407        C408   1.397       .  A
C407        H415   1.083       .  S
C408        H416   1.081       .  S
C409        H417   1.086       .  S
C409        C410   1.344       .  D
C410        H418   1.085       .  S
C411        H419   1.085       .  S
C411        C412   1.343       .  D
C412        H420   1.084       .  S
C421        C422   1.401       .  A
C421        C426   1.407       .  A
C421        C429   1.481       .  S
C422        C423   1.395       .  A
C422        H431   1.083       .  S
C423        C424   1.408       .  A
C423        H432   1.081       .  S
C424        C425   1.402       .  A
C424        C427   1.483       .  S
C425        C426   1.397       .  A
C425        H433   1.083       .  S
C426        H434   1.082       .  S
C427        H435   1.085       .  S
C427        C428   1.344       .  D
C428        H436   1.084       .  S
C429        H437   1.085       .  S
C429        C430   1.343       .  D
C430        H438   1.084       .  S
C439        C440   1.402       .  A
C439        C444   1.407       .  A
C439        C447   1.479       .  S
C440        C441   1.396       .  A
C440        H449   1.084       .  S
C441        C442   1.406       .  A
C441        H450   1.083       .  S
C442        C443   1.402       .  A
C442        C445   1.481       .  S
C443        C444   1.399       .  A
C443        H451   1.084       .  S
C444        H452   1.082       .  S
C445        H453   1.086       .  S
C445        C446   1.344       .  D
C446        H454   1.086       .  S
C447        H455   1.086       .  S
C447        C448   1.344       .  D
C448        H456   1.085       .  S
C457        C458   1.402       .  A
C457        C462   1.408       .  A
C457        C465   1.486       .  S
C458        C459   1.399       .  A
C458        H467   1.084       .  S
C459        C460   1.409       .  A
C459        H468   1.079       .  S
C460        C461   1.404       .  A
C460        C463   1.488   1_455  S
C461        C462   1.396       .  A
C461        H469   1.084       .  S
C462        H470   1.081       .  S
C463        H471   1.085       .  S
C463        C464   1.347       .  D
C464        H472   1.083       .  S
C465        H473   1.086       .  S
C465        C466   1.345       .  D
C466        H474   1.084       .  S
C475        C476   1.403       .  A
C475        C480   1.407       .  A
C475        C483   1.483       .  S
C476        C477   1.398       .  A
C476        H485   1.083       .  S
C477        C478   1.407       .  A
C477        H486   1.081       .  S
C478        C479   1.402       .  A
C478        C481   1.481       .  S
C479        C480   1.393       .  A
C479        H487   1.083       .  S
C480        H488   1.081       .  S
C481        H489   1.084   1_554  S
C481        C482   1.345       .  D
C482        H490   1.083       .  S
C483        H491   1.085       .  S
C483        C484   1.344       .  D
C484        H492   1.084       .  S
C493        C494   1.403       .  A
C493        C498   1.408       .  A
C493        C501   1.484       .  S
C494        C495   1.397       .  A
C494        H503   1.084       .  S
C495        C496   1.407       .  A
C495        H504   1.082       .  S
C496        C497   1.401       .  A
C496        C499   1.481       .  S
C497        C498   1.398       .  A
C497        H505   1.083       .  S
C498        H506   1.081       .  S
C499        H507   1.086       .  S
C499        C500   1.343       .  D
C500        H508   1.086       .  S
C501        H509   1.085       .  S
C501        C502   1.345       .  D
C502        H510   1.084       .  S
C511        C512   1.404       .  A
C511        C516   1.406   1_554  A
C511        C519   1.484       .  S
C512        C513   1.398   1_554  A
C512        H521   1.083       .  S
C513        C514   1.407       .  A
C513        H522   1.081       .  S
C514        C515   1.403       .  A
C514        C517   1.484       .  S
C515        C516   1.396       .  A
C515        H523   1.084       .  S
C516        H524   1.081       .  S
C517        H525   1.085       .  S
C517        C518   1.346       .  D
C518        H526   1.084       .  S
C519        H527   1.085       .  S
C519        C520   1.346       .  D
C520        H528   1.084       .  S
C529        C530   1.404       .  A
C529        C534   1.408       .  A
C529        C537   1.489       .  S
C530        C531   1.400       .  A
C530        H539   1.083       .  S
C531        C532   1.407       .  A
C531        H540   1.082       .  S
C532        C533   1.403       .  A
C532        C535   1.486       .  S
C533        C534   1.398       .  A
C533        H541   1.084       .  S
C534        H542   1.081       .  S
C535        H543   1.086       .  S
C535        C536   1.345       .  D
C536        H544   1.085       .  S
C537        H545   1.086       .  S
C537        C538   1.346       .  D
C538        H546   1.085       .  S
C547        C548   1.403       .  A
C547        C552   1.408       .  A
C547        C555   1.487       .  S
C548        C549   1.397       .  A
C548        H557   1.083       .  S
C549        C550   1.403       .  A
C549        H558   1.084       .  S
C550        C551   1.407       .  A
C550        C553   1.485       .  S
C551        C552   1.398       .  A
C551        H559   1.081       .  S
C552        H560   1.081       .  S
C553        H561   1.085       .  S
C553        C554   1.346       .  D
C554        H562   1.084       .  S
C555        H563   1.085       .  S
C555        C556   1.346       .  D
C556        H564   1.083       .  S
C565        C566   1.406       .  A
C565        C570   1.406       .  A
C565        C573   1.490       .  S
C566        C567   1.404       .  A
C566        H575   1.083       .  S
C567        C568   1.409       .  A
C567        H576   1.081       .  S
C568        C569   1.403       .  A
C568        C571   1.490       .  S
C569        C570   1.393       .  A
C569        H577   1.083       .  S
C570        H578   1.080       .  S
C571        H579   1.084       .  S
C571        C572   1.349       .  D
C572        H580   1.083       .  S
C573        H581   1.085       .  S
C573        C574   1.348       .  D
C574        H582   1.083       .  S
C583        C584   1.402   1_655  A
C583        C588   1.405       .  A
C583        C591   1.475       .  S
C584        C585   1.398       .  A
C584        H593   1.083       .  S
C585        C586   1.404       .  A
C585        H594   1.083       .  S
C586        C587   1.401   1_455  A
C586        C589   1.473       .  S
C587        C588   1.397       .  A
C587        H595   1.083       .  S
C588        H596   1.083       .  S
C589        H597   1.087       .  S
C589        C590   1.341       .  D
C590        H598   1.087       .  S
C591        H599   1.087       .  S
C591        C592   1.343       .  D
C592        H600   1.087       .  S
C601        C602   1.403       .  A
C601        C606   1.406       .  A
C601        C609   1.485       .  S
C602        C603   1.400       .  A
C602        H611   1.084       .  S
C603        C604   1.409       .  A
C603        H612   1.081       .  S
C604        C605   1.403       .  A
C604        C607   1.488       .  S
C605        C606   1.396       .  A
C605        H613   1.083       .  S
C606        H614   1.082       .  S
C607        H615   1.086       .  S
C607        C608   1.346       .  D
C608        H616   1.084       .  S
C609        H617   1.086       .  S
C609        C610   1.345       .  D
C610        H618   1.086       .  S
C619        C620   1.403       .  A
C619        C624   1.409       .  A
C619        C627   1.490       .  S
C620        C621   1.396       .  A
C620        H629   1.084       .  S
C621        C622   1.407       .  A
C621        H630   1.080       .  S
C622        C623   1.405       .  A
C622        C625   1.489       .  S
C623        C624   1.402       .  A
C623        H631   1.084       .  S
C624        H632   1.080       .  S
C625        H633   1.086       .  S
C625        C626   1.348       .  D
C626        H634   1.084       .  S
C627        H635   1.085       .  S
C627        C628   1.347       .  D
C628        H636   1.083       .  S
C637        C638   1.404       .  A
C637        C642   1.406       .  A
C637        C645   1.487       .  S
C638        C639   1.402       .  A
C638        H647   1.083       .  S
C639        C640   1.409       .  A
C639        H648   1.081       .  S
C640        C641   1.404       .  A
C640        C643   1.488       .  S
C641        C642   1.397       .  A
C641        H649   1.083       .  S
C642        H650   1.082       .  S
C643        H651   1.086       .  S
C643        C644   1.347       .  D
C644        H652   1.085       .  S
C645        H653   1.086       .  S
C645        C646   1.345       .  D
C646        H654   1.086       .  S
C655        C656   1.402       .  A
C655        C660   1.405       .  A
C655        C663   1.479       .  S
C656        C657   1.399       .  A
C656        H665   1.084       .  S
C657        C658   1.406       .  A
C657        H666   1.083       .  S
C658        C659   1.402       .  A
C658        C661   1.480       .  S
C659        C660   1.399       .  A
C659        H667   1.084       .  S
C660        H668   1.083       .  S
C661        H669   1.087       .  S
C661        C662   1.342       .  D
C662        H670   1.086       .  S
C663        H671   1.087       .  S
C663        C664   1.343       .  D
C664        H672   1.087       .  S
C673        C674   1.405       .  A
C673        C678   1.409       .  A
C673        C681   1.494       .  S
C674        C675   1.400       .  A
C674        H683   1.084       .  S
C675        C676   1.408       .  A
C675        H684   1.080       .  S
C676        C677   1.405       .  A
C676        C679   1.493       .  S
C677        C678   1.399       .  A
C677        H685   1.084       .  S
C678        H686   1.080       .  S
C679        H687   1.085       .  S
C679        C680   1.350       .  D
C680        H688   1.082       .  S
C681        H689   1.086       .  S
C681        C682   1.349       .  D
C682        H690   1.082       .  S
C691        C692   1.401       .  A
C691        C696   1.406       .  A
C691        C699   1.482       .  S
C692        C693   1.397       .  A
C692        H701   1.084       .  S
C693        C694   1.409       .  A
C693        H702   1.080       .  S
C694        C695   1.404       .  A
C694        C697   1.487       .  S
C695        C696   1.398       .  A
C695        H703   1.084       .  S
C696        H704   1.082       .  S
C697        H705   1.086       .  S
C697        C698   1.346       .  D
C698        H706   1.084       .  S
C699        H707   1.086       .  S
C699        C700   1.344       .  D
C700        H708   1.086       .  S
C709        C710   1.403       .  A
C709        C714   1.406       .  A
C709        C717   1.482       .  S
C710        C711   1.399       .  A
C710        H719   1.084       .  S
C711        C712   1.406       .  A
C711        H720   1.083       .  S
C712        C713   1.402   1_565  A
C712        C715   1.480   1_565  S
C713        C714   1.398   1_545  A
C713        H721   1.083       .  S
C714        H722   1.082       .  S
C715        H723   1.087       .  S
C715        C716   1.342       .  D
C716        H724   1.086       .  S
C717        H725   1.086       .  S
C717        C718   1.345       .  D
C718        H726   1.086       .  S
C727        C728   1.401       .  A
C727        C732   1.408       .  A
C727        C735   1.484       .  S
C728        C729   1.396       .  A
C728        H737   1.084       .  S
C729        C730   1.409       .  A
C729        H738   1.080       .  S
C730        C731   1.404       .  A
C730        C733   1.489       .  S
C731        C732   1.399       .  A
C731        H739   1.083       .  S
C732        H740   1.081       .  S
C733        H741   1.086       .  S
C733        C734   1.345       .  D
C734        H742   1.083       .  S
C735        H743   1.086       .  S
C735        C736   1.343       .  D
C736        H744   1.085       .  S
C745        C746   1.401       .  A
C745        C750   1.405       .  A
C745        C753   1.478       .  S
C746        C747   1.396       .  A
C746        H755   1.083       .  S
C747        C748   1.406       .  A
C747        H756   1.082       .  S
C748        C749   1.403       .  A
C748        C751   1.479       .  S
C749        C750   1.397       .  A
C749        H757   1.083       .  S
C750        H758   1.083       .  S
C751        H759   1.086       .  S
C751        C752   1.344       .  D
C752        H760   1.086       .  S
C753        H761   1.087       .  S
C753        C754   1.343       .  D
C754        H762   1.087       .  S
C763        C764   1.403       .  A
C763        C768   1.407       .  A
C763        C771   1.484       .  S
C764        C765   1.396       .  A
C764        H773   1.083       .  S
C765        C766   1.406       .  A
C765        H774   1.081       .  S
C766        C767   1.404       .  A
C766        C769   1.483       .  S
C767        C768   1.396       .  A
C767        H775   1.084       .  S
C768        H776   1.080       .  S
C769        H777   1.085       .  S
C769        C770   1.347       .  D
C770        H778   1.083       .  S
C771        H779   1.085       .  S
C771        C772   1.346       .  D
C772        H780   1.083       .  S
C781        C782   1.403       .  A
C781        C786   1.408       .  A
C781        C789   1.483       .  S
C782        C783   1.396       .  A
C782        H791   1.083       .  S
C783        C784   1.405       .  A
C783        H792   1.082       .  S
C784        C785   1.402       .  A
C784        C787   1.480       .  S
C785        C786   1.397       .  A
C785        H793   1.084       .  S
C786        H794   1.081       .  S
C787        H795   1.086       .  S
C787        C788   1.344       .  D
C788        H796   1.086       .  S
C789        H797   1.085       .  S
C789        C790   1.344       .  D
C790        H798   1.084       .  S
C799        C800   1.402       .  A
C799        C804   1.407       .  A
C799        C807   1.484       .  S
C800        C801   1.395       .  A
C800        H809   1.084       .  S
C801        C802   1.404       .  A
C801        H810   1.084       .  S
C802        C803   1.409       .  A
C802        C805   1.489       .  S
C803        C804   1.399       .  A
C803        H811   1.079       .  S
C804        H812   1.081       .  S
C805        H813   1.085       .  S
C805        C806   1.348       .  D
C806        H814   1.081       .  S
C807        H815   1.085       .  S
C807        C808   1.346       .  D
C808        H816   1.084       .  S
