geometry optimzed in LAMMPS
_audit_creation_date              2020-12-01 
_audit_creation_method            'lammps2cif' 
_symmetry_space_group_name_H-M    'P1' 
_symmetry_Int_Tables_number       1 
_symmetry_cell_setting            triclinic 
loop_ 
_symmetry_equiv_pos_as_xyz 
  x,y,z 
_cell_length_a                    37.48603799 
_cell_length_b                    38.0759957886715 
_cell_length_c                    68.60181401470017 
_cell_angle_alpha                 90.11088374261888 
_cell_angle_beta                  89.86248062094651 
_cell_angle_gamma                 89.98102214745859 
loop_ 
_atom_site_label 
_atom_site_type_symbol 
_atom_site_fract_x 
_atom_site_fract_y 
_atom_site_fract_z 
_atom_site_charge 
C1          C  0.43648406  0.31202982  0.35031301     0.79700
N2          N  0.45780138  0.33404750  0.33994043    -0.78600
C3          C  0.45786296  0.33322051  0.32018966     0.82100
N4          N  0.43687641  0.30991490  0.31067550    -0.78600
C5          C  0.41461528  0.28858545  0.32078345     0.82200
N6          N  0.41460155  0.28947032  0.34059642    -0.80300
C7          C  0.43336442  0.31597707  0.18176394     0.79700
N8          N  0.41403329  0.29084221  0.19125790    -0.78600
C9          C  0.41921867  0.28507729  0.21065901     0.82100
N10         N  0.44366690  0.30446346  0.22047044    -0.78600
C11         C  0.96228741  0.32999787  0.21122178     0.82200
N12         N  0.45709458  0.33563226  0.19197848    -0.80300
C13         C  0.20190970  0.31931132  0.34991869     0.79700
N14         N  0.22106211  0.29431016  0.34023904    -0.78600
C15         C  0.21396817  0.28703204  0.32120297     0.82100
N16         N  0.18779442  0.30479447  0.31184190    -0.78600
C17         C  0.16915888  0.33019980  0.32123412     0.82200
N18         N  0.17622301  0.33734965  0.34019348    -0.80300
C19         C  0.44349457  0.06034880  0.18117711     0.79700
N20         N  0.42133026  0.08214066  0.19129411    -0.78600
C21         C  0.42068260  0.08148247  0.21107974     0.82100
N22         N  0.44254333  0.05934124  0.22081367    -0.78600
C23         C  0.46387989  0.03675401  0.21092208     0.82200
N24         N  0.46450524  0.03741549  0.19114141    -0.80300
N25         N  0.02460571  0.49708016  0.28943685    -0.06700
N26         N  0.99854944  0.02091037  0.29224303    -0.58800
N27         N  0.10636920  0.47258196  0.30348384    -0.06400
N28         N  0.12951502  0.48069700  0.31728346    -0.60900
N29         N  0.10735117  0.49604599  0.28942865    -0.06000
N30         N  0.13073858  0.02084472  0.29258274    -0.58800
N31         N  0.02457020  0.47319674  0.30325944    -0.05600
N32         N  0.00012195  0.48057766  0.31654655    -0.61300
C33         C  0.98342154  0.01004477  0.30907124     0.95500
C34         C  0.14541415  0.51012427  0.31046737     0.95300
N35         N  0.10567880  0.36588816  0.28928365    -0.06900
N36         N  0.12857408  0.34063135  0.29333276    -0.59400
N37         N  0.02381523  0.39074251  0.30284331    -0.05000
N38         N  0.99987342  0.38314435  0.31632677    -0.60600
N39         N  0.02329067  0.36716901  0.28879441    -0.06900
N40         N  0.99846799  0.34340253  0.29223947    -0.59600
N41         N  0.10524338  0.38950548  0.30331579    -0.04600
N42         N  0.12752703  0.38055376  0.31733094    -0.60700
Mn43       Mn  0.06504685  0.43151435  0.30381721     1.18400
C44         C  0.14201954  0.35022663  0.31078730     0.97600
C45         C  0.48399252  0.35388173  0.30934223     0.98200
N46         N  0.10740438  0.49660096  0.24386830    -0.06900
N47         N  0.13311330  0.51965943  0.24091213    -0.63200
N48         N  0.02537670  0.47406894  0.22953679    -0.05700
N49         N  0.00343428  0.48382232  0.21546534    -0.63900
N50         N  0.02483488  0.49718458  0.24384412    -0.06400
N51         N  0.00141808  0.02304929  0.23945608    -0.63500
N52         N  0.10708946  0.47295560  0.22986281    -0.05300
N53         N  0.13236504  0.47962098  0.21695584    -0.64200
Mn54       Mn  0.06605632  0.49780108  0.26664584     1.10700
C55         C  0.14847463  0.50864235  0.22415107     0.98800
C56         C  0.98871840  0.51383145  0.22238942     0.98900
N57         N  0.02454240  0.36688481  0.24337486    -0.06400
N58         N  0.00161564  0.34166864  0.23936790    -0.61800
N59         N  0.10650162  0.39017511  0.22940267    -0.05700
N60         N  0.13013031  0.38211823  0.21576880    -0.58500
N61         N  0.10699972  0.36669996  0.24346661    -0.07100
N62         N  0.13143519  0.34256941  0.23985937    -0.61400
N63         N  0.02494756  0.39049847  0.22938572    -0.06000
N64         N  0.00268075  0.38139534  0.21536077    -0.58600
Mn65       Mn  0.06519268  0.36561745  0.26621616     1.20200
Mn66       Mn  0.06589989  0.43194913  0.22891876     1.10100
Cl67       Cl  0.06557191  0.43171009  0.26638880    -0.86500
C68         C  0.48814086  0.35113328  0.22195565     0.95800
C69         C  0.14570937  0.35260585  0.22263004     0.95600
C70         C  0.19844376  0.31235051  0.18257760     0.79700
N71         N  0.17528996  0.33364161  0.19239747    -0.78600
C72         C  0.17286284  0.33216830  0.21215776     0.82100
N73         N  0.19324883  0.30895568  0.22212948    -0.78600
C74         C  0.21708585  0.28839553  0.21257521     0.82200
N75         N  0.21949342  0.29001121  0.19286353    -0.80300
C76         C  0.42366773  0.04156472  0.34824109     0.79700
N77         N  0.44832084  0.02242014  0.33828972    -0.78600
C78         C  0.95542557  0.02942786  0.31930555     0.82100
N79         N  0.43779095  0.05570037  0.31014757    -0.78600
C80         C  0.41258805  0.07448631  0.31980315     0.82200
N81         N  0.40566027  0.06751132  0.33885296    -0.80300
C82         C  0.19302704  0.05292485  0.35054177     0.79700
N83         N  0.21451128  0.07566227  0.34064948    -0.78600
C84         C  0.21406473  0.07668286  0.32083804     0.82100
N85         N  0.19166662  0.05522421  0.31088290    -0.78600
C86         C  0.17099738  0.03171410  0.32053104     0.82200
N87         N  0.17158903  0.03078421  0.34029511    -0.80300
C88         C  0.20634537  0.04042322  0.18441254     0.79700
N89         N  0.18116420  0.02236442  0.19445386    -0.78600
C90         C  0.17382100  0.03017458  0.21324380     0.82100
N91         N  0.19185469  0.05639725  0.22226702    -0.78600
C92         C  0.21766470  0.07435799  0.21256651     0.82200
N93         N  0.22483280  0.06647121  0.19356561    -0.80300
N94         N  0.38072414  0.22367809  0.28938502    -0.06700
N95         N  0.40484563  0.24801584  0.29304081    -0.58800
N96         N  0.35694127  0.14256577  0.30334338    -0.06400
N97         N  0.36386110  0.11839632  0.31657608    -0.60900
N98         N  0.38138239  0.14230943  0.28954035    -0.06000
N99         N  0.40518977  0.11753949  0.29295067    -0.58800
N100        N  0.35674683  0.22280033  0.30343771    -0.05600
N101        N  0.36446558  0.24606696  0.31711390    -0.61300
C102        C  0.39426140  0.26181390  0.31027512     0.95500
C103        C  0.39385481  0.10290182  0.30980406     0.95300
N104        N  0.24920784  0.14099216  0.28925362    -0.06900
N105        N  0.22476930  0.11688013  0.29288522    -0.59400
N106        N  0.27280505  0.22232682  0.30338437    -0.05000
N107        N  0.26464687  0.24531035  0.31713463    -0.60600
N108        N  0.24860385  0.22248839  0.28952278    -0.06900
N109        N  0.22367053  0.24597493  0.29345013    -0.59600
N110        N  0.27284746  0.14193695  0.30340397    -0.04600
N111        N  0.26455416  0.11899678  0.31713333    -0.60700
Mn112      Mn  0.31485442  0.18240309  0.30393852     1.18400
C113        C  0.23477517  0.10329691  0.31023958     0.97600
C114        C  0.23410225  0.25998502  0.31065717     0.98200
N115        N  0.38226745  0.14189483  0.24375182    -0.06900
N116        N  0.40796444  0.11934674  0.23967833    -0.63200
N117        N  0.35842926  0.22254195  0.22932793    -0.05700
N118        N  0.36763071  0.24407266  0.21505821    -0.63900
N119        N  0.38242131  0.22318465  0.24331384    -0.06400
N120        N  0.40812024  0.24558134  0.23894070    -0.63500
N121        N  0.35863107  0.14243291  0.22958871    -0.05300
N122        N  0.36822030  0.12089645  0.21539337    -0.64200
Mn123      Mn  0.38280228  0.18281435  0.26654006     1.10700
C124        C  0.39874049  0.10641308  0.22204589     0.98800
C125        C  0.39851956  0.25844619  0.22133954     0.98900
N126        N  0.24997122  0.22276870  0.24367488    -0.06400
N127        N  0.22607628  0.24743832  0.24022204    -0.61800
N128        N  0.27436705  0.14177683  0.22951680    -0.05700
N129        N  0.26709655  0.11796991  0.21604055    -0.58500
N130        N  0.24996152  0.14136125  0.24334851    -0.07100
N131        N  0.22588337  0.11694668  0.23969354    -0.61400
N132        N  0.27419475  0.22221260  0.22974644    -0.06000
N133        N  0.26694166  0.24601392  0.21636911    -0.58600
Mn134      Mn  0.24824516  0.18189772  0.26642292     1.20200
Mn135      Mn  0.31631955  0.18223209  0.22902339     1.10100
Cl136      Cl  0.31555674  0.18236542  0.26647524    -0.86500
C137        C  0.23715957  0.26175732  0.22323869     0.95800
C138        C  0.23691862  0.10258684  0.22267234     0.95600
N139        N  0.31192762  0.43837079  0.54904658    -0.37200
N140        N  0.27103238  0.40160277  0.51889981    -0.57700
N141        N  0.31163158  0.43995340  0.48943642    -0.37200
N142        N  0.34921531  0.48005482  0.51942219    -0.57700
C143        C  0.28747441  0.42144007  0.56015432     0.26400
C144        C  0.32795304  0.46280391  0.56042812     0.26400
C145        C  0.28747347  0.42351097  0.47796636     0.26400
C146        C  0.32889109  0.46381433  0.47827559     0.26400
C147        C  0.25935624  0.38344031  0.53456047     0.35000
C148        C  0.25893745  0.38453181  0.50293586     0.35000
C149        C  0.36683238  0.49166138  0.53533252     0.35000
C150        C  0.36745597  0.49177755  0.50370772     0.35000
C151        C  0.28836381  0.43501027  0.57893812    -0.22500
C152        C  0.31377324  0.46099731  0.57910911    -0.22500
C153        C  0.28969949  0.43702070  0.45920918    -0.22500
C154        C  0.31562922  0.46235337  0.45941981    -0.22500
C155        C  0.23907273  0.35499458  0.52852771    -0.23500
C156        C  0.23878276  0.35571372  0.50847422    -0.23500
C157        C  0.39602658  0.51161224  0.52969442    -0.23500
C158        C  0.39646226  0.51160185  0.50963378    -0.23500
C159        C  0.26549498  0.39297704  0.55421380    -0.18900
C160        C  0.35628991  0.48547981  0.55484877    -0.18900
C161        C  0.35780835  0.48544680  0.48410605    -0.18900
C162        C  0.26491979  0.39522082  0.48346544    -0.18900
H163        H  0.27256116  0.42691018  0.59135984     0.14100
H164        H  0.32113952  0.47652242  0.59169770     0.14100
H165        H  0.27469047  0.42919044  0.44647775     0.14100
H166        H  0.32404561  0.47760678  0.44693462     0.14100
H167        H  0.22572483  0.33584190  0.53761764     0.12300
H168        H  0.22523711  0.33720649  0.49906096     0.12300
H169        H  0.42179578  0.01976821  0.53880423     0.12300
H170        H  0.42257314  0.01946460  0.50017573     0.12300
H171        H  0.31871823  0.43222125  0.53484965     0.25600
H172        H  0.31759519  0.43374500  0.50368755     0.25600
N173        N  0.07598539  0.18035725  0.04758317    -0.37200
N174        N  0.03960637  0.13992418  0.01706624    -0.57700
N175        N  0.07311810  0.18527783  0.98840557    -0.37200
N176        N  0.11301706  0.22251754  0.01865742    -0.57700
C177        C  0.06095137  0.15429609  0.05817519     0.26400
C178        C  0.10064174  0.19635691  0.05898241     0.26400
C179        C  0.05929089  0.15998485  0.97678889     0.26400
C180        C  0.09697203  0.20339026  0.97759243     0.26400
C181        C  0.02172116  0.12754074  0.03268134     0.35000
C182        C  0.02142168  0.12919202  0.00116931     0.35000
C183        C  0.12427601  0.23955017  0.03478284     0.35000
C184        C  0.12192832  0.24278901  0.00328242     0.35000
C185        C  0.07601790  0.15389938  0.07662182    -0.22500
C186        C  0.10098260  0.18030495  0.07712922    -0.22500
C187        C  0.07432685  0.16228635  0.95834298    -0.22500
C188        C  0.09804534  0.18957658  0.95884261    -0.22500
C189        C  0.49246040  0.10808283  0.02667446    -0.23500
C190        C  0.49231730  0.10909040  0.00663268    -0.23500
C191        C  0.14108088  0.27062412  0.02958943    -0.23500
C192        C  0.13948363  0.27271565  0.00957911    -0.23500
C193        C  0.03226902  0.13246765  0.05222939    -0.18900
C194        C  0.12112285  0.22645690  0.05398344    -0.18900
C195        C  0.11618563  0.23347950  0.98363901    -0.18900
C196        C  0.03162300  0.13646355  0.98183196    -0.18900
H197        H  0.06939503  0.13670074  0.08863505     0.14100
H198        H  0.11700567  0.18720722  0.08965449     0.14100
H199        H  0.06852832  0.14628916  0.94568726     0.14100
H200        H  0.11393996  0.19842963  0.94661867     0.14100
H201        H  0.47329488  0.09451756  0.03576814     0.12300
H202        H  0.47303271  0.09656857  0.99718021     0.12300
H203        H  0.15342832  0.28964950  0.03917489     0.12300
H204        H  0.15037635  0.29357993  0.00067843     0.12300
H205        H  0.06803624  0.18816364  0.03384737     0.25600
H206        H  0.06496376  0.19147467  0.00241497     0.25600
N207        N  0.05955718  0.17922625  0.48425300    -0.37200
N208        N  0.09868530  0.14057328  0.51406749    -0.57700
N209        N  0.06139129  0.18195039  0.54368185    -0.37200
N210        N  0.01878293  0.21716915  0.51399518    -0.57700
C211        C  0.07426261  0.15333254  0.47331118     0.26400
C212        C  0.03454658  0.19529843  0.47323830     0.26400
C213        C  0.08019540  0.15976426  0.55509464     0.26400
C214        C  0.03667813  0.19783843  0.55508661     0.26400
C215        C  0.11574900  0.12812959  0.49812467     0.35000
C216        C  0.11858381  0.13142475  0.52964658     0.35000
C217        C  0.00763521  0.23516610  0.49821408     0.35000
C218        C  0.00652105  0.23467000  0.52978047     0.35000
C219        C  0.05848772  0.15325287  0.45501657    -0.22500
C220        C  0.03356881  0.17969073  0.45496809    -0.22500
C221        C  0.06754252  0.16191416  0.57408839    -0.22500
C222        C  0.04025308  0.18581524  0.57409566    -0.22500
C223        C  0.14635690  0.11030074  0.50363421    -0.23500
C224        C  0.14820370  0.11249322  0.52363351    -0.23500
C225        C  0.48757338  0.26398378  0.50396416    -0.23500
C226        C  0.48667926  0.26353952  0.52401342    -0.23500
C227        C  0.10330800  0.13154934  0.47876745    -0.18900
C228        C  0.01392444  0.22492396  0.47871725    -0.18900
C229        C  0.01244224  0.22449653  0.54928836    -0.18900
C230        C  0.10958153  0.13873329  0.54924590    -0.18900
H231        H  0.06464267  0.13640871  0.44275020     0.14100
H232        H  0.01685954  0.18679092  0.44274984     0.14100
H233        H  0.07711029  0.14795113  0.58676909     0.14100
H234        H  0.02526370  0.19372836  0.58685828     0.14100
H235        H  0.16533115  0.09705248  0.49424966     0.12300
H236        H  0.16883419  0.10127304  0.53271064     0.12300
H237        H  0.47465545  0.28309566  0.49469307     0.12300
H238        H  0.47316763  0.28238949  0.53327217     0.12300
H239        H  0.06779630  0.18721892  0.49795160     0.25600
H240        H  0.06653065  0.18732100  0.52919295     0.25600
N241        N  0.31736100  0.43180778  0.98464628    -0.37200
N242        N  0.27976685  0.46973985  0.01525333    -0.57700
N243        N  0.32228275  0.43134387  0.04395337    -0.37200
N244        N  0.36307753  0.39693491  0.01351969    -0.57700
C245        C  0.29923568  0.45558388  0.97383355     0.26400
C246        C  0.34195204  0.41655106  0.97292111     0.26400
C247        C  0.30568390  0.45537058  0.05531428     0.26400
C248        C  0.34955105  0.41783899  0.05445716     0.26400
C249        C  0.25992828  0.48030277  0.99995882     0.35000
C250        C  0.26169927  0.47907831  0.03148446     0.35000
C251        C  0.37401388  0.37950877  0.99746010     0.35000
C252        C  0.37696539  0.37976774  0.02895075     0.35000
C253        C  0.31221051  0.45489530  0.95485460    -0.22500
C254        C  0.33906382  0.43038159  0.95429415    -0.22500
C255        C  0.32244003  0.45700190  0.07329513    -0.22500
C256        C  0.34987660  0.43330268  0.07280618    -0.22500
C257        C  0.22857444  0.00214763  0.00539695    -0.23500
C258        C  0.22654552  0.99858807  0.02530909    -0.23500
C259        C  0.39562083  0.35148258  0.00267551    -0.23500
C260        C  0.39751569  0.35168146  0.02268531    -0.23500
C261        C  0.27019084  0.47670290  0.98024490    -0.18900
C262        C  0.36586815  0.38928308  0.97814562    -0.18900
C263        C  0.37256222  0.39024546  0.04852810    -0.18900
C264        C  0.27422894  0.47407953  0.05062449    -0.18900
H265        H  0.30308272  0.47008229  0.94252279     0.14100
H266        H  0.35456226  0.42339769  0.94152858     0.14100
H267        H  0.31529300  0.47316011  0.08569853     0.14100
H268        H  0.36751965  0.42792394  0.08486747     0.14100
H269        H  0.21131120  0.01832234  0.99653081     0.12300
H270        H  0.20767825  0.01170700  0.03481753     0.12300
H271        H  0.40875587  0.33293217  0.99307300     0.12300
H272        H  0.41243753  0.33341868  0.03157560     0.12300
H273        H  0.31211181  0.42492603  0.99895136     0.25600
H274        H  0.31373205  0.42283782  0.03038876     0.25600
C275        C  0.44786088  0.30555516  0.84993082     0.79700
N276        N  0.42643484  0.28356405  0.83964859    -0.78600
C277        C  0.42582912  0.28454177  0.81994862     0.82100
N278        N  0.44656983  0.30797084  0.81033455    -0.78600
C279        C  0.46907807  0.32921804  0.82036507     0.82200
N280        N  0.46948269  0.32824430  0.84016855    -0.80300
C281        C  0.45922624  0.07332523  0.84796420     0.79700
N282        N  0.47724257  0.04780667  0.83821478    -0.78600
C283        C  0.46974327  0.04083775  0.81928493     0.82100
N284        N  0.44403415  0.05935479  0.80999562    -0.78600
C285        C  0.42638352  0.08536445  0.81949250     0.82200
N286        N  0.43398816  0.09229474  0.83843366    -0.80300
C287        C  0.19252219  0.06154292  0.85111713     0.79700
N288        N  0.17060899  0.03941145  0.84109255    -0.78600
C289        C  0.17169837  0.03836102  0.82127452     0.82100
N290        N  0.19496026  0.05914505  0.81149561    -0.78600
C291        C  0.21606457  0.08198796  0.82127372     0.82200
N292        N  0.21495690  0.08299076  0.84102253    -0.80300
C293        C  0.18005184  0.29793226  0.84934467     0.79700
N294        N  0.16172495  0.32289829  0.83938558    -0.78600
C295        C  0.16889849  0.32905153  0.82032042     0.82100
N296        N  0.19440442  0.31003726  0.81108907    -0.78600
C297        C  0.21230342  0.28448236  0.82074709     0.82200
N298        N  0.20525148  0.27854999  0.83989199    -0.80300
C299        C  0.18119326  0.07343764  0.68263312     0.79700
N300        N  0.20624169  0.09224215  0.69246946    -0.78600
C301        C  0.21309644  0.08545745  0.71149810     0.82100
N302        N  0.19473876  0.05977222  0.72081072    -0.78600
C303        C  0.16913561  0.04132576  0.71131055     0.82200
N304        N  0.16246247  0.04811098  0.69221054    -0.80300
C305        C  0.44908469  0.06456324  0.68210186     0.79700
N306        N  0.47013872  0.04170004  0.69205313    -0.78600
C307        C  0.46849391  0.03989544  0.71177649     0.82100
N308        N  0.44535542  0.06077397  0.72165069    -0.78600
C309        C  0.42515284  0.08454156  0.71194527     0.82200
N310        N  0.42686369  0.08620536  0.69221743    -0.80300
N311        N  0.36021159  0.11969169  0.78880916    -0.06700
N312        N  0.38428512  0.09525349  0.79228292    -0.58800
N313        N  0.27867328  0.14279519  0.80318360    -0.06400
N314        N  0.25668692  0.13335159  0.81731964    -0.60900
N315        N  0.27791092  0.11964535  0.78890089    -0.06000
N316        N  0.25492414  0.09441431  0.79285725    -0.58800
N317        N  0.36014613  0.14338114  0.80280066    -0.05600
N318        N  0.38386536  0.13524392  0.81626171    -0.61300
C319        C  0.39882387  0.10536207  0.80937353     0.95500
C320        C  0.24179674  0.10342047  0.81051402     0.95300
N321        N  0.27765748  0.24968095  0.78942886    -0.06900
N322        N  0.25376625  0.27417868  0.79321732    -0.59400
N323        N  0.35984815  0.22640459  0.80310351    -0.05000
N324        N  0.38392149  0.23427797  0.81644198    -0.60600
N325        N  0.36008080  0.24998779  0.78911527    -0.06900
N326        N  0.38475197  0.27395135  0.79239368    -0.59600
N327        N  0.27808854  0.22603920  0.80339924    -0.04600
N328        N  0.25474339  0.23428302  0.81714376    -0.60700
Mn329      Mn  0.31918293  0.18467119  0.80376210     1.18400
C330        C  0.23966525  0.26420496  0.81045562     0.97600
C331        C  0.39951715  0.26366760  0.80937030     0.98200
N332        N  0.27822999  0.11981686  0.74310944    -0.06900
N333        N  0.25446112  0.09525221  0.73920350    -0.63200
N334        N  0.36044098  0.14376352  0.72948002    -0.05700
N335        N  0.38379189  0.13536834  0.71578137    -0.63900
N336        N  0.36062452  0.12011058  0.74343754    -0.06400
N337        N  0.38453884  0.09556807  0.73975825    -0.63500
N338        N  0.27878211  0.14353701  0.72918216    -0.05300
N339        N  0.25566481  0.13534947  0.71538708    -0.64200
Mn340      Mn  0.31915997  0.11883663  0.76606109     1.10700
C341        C  0.24053655  0.10535618  0.72195826     0.98800
C342        C  0.39887393  0.10554066  0.72257958     0.98900
N343        N  0.35992537  0.25057520  0.74387608    -0.06400
N344        N  0.38375836  0.27523851  0.74030735    -0.61800
N345        N  0.27855880  0.22651700  0.72959529    -0.05700
N346        N  0.25548731  0.23479172  0.71582604    -0.58500
N347        N  0.27758083  0.24983593  0.74377696    -0.07100
N348        N  0.25338155  0.27408805  0.74012673    -0.61400
N349        N  0.36005199  0.22681451  0.72992697    -0.06000
N350        N  0.38360022  0.23512837  0.71638434    -0.58600
Mn351      Mn  0.31872892  0.25107028  0.76656607     1.20200
Mn352      Mn  0.31949347  0.18518707  0.72893136     1.10100
Cl353      Cl  0.31906564  0.18493713  0.76633245    -0.86500
C354        C  0.39832191  0.26512407  0.72318890     0.95800
C355        C  0.23973412  0.26422044  0.72275406     0.95600
C356        C  0.45524919  0.29780613  0.68331695     0.79700
N357        N  0.43076402  0.27904448  0.69349881    -0.78600
C358        C  0.42522600  0.28527460  0.71267414     0.82100
N359        N  0.44423934  0.31055486  0.72187423    -0.78600
C360        C  0.46940063  0.32900124  0.71200716     0.82200
N361        N  0.47490110  0.32267208  0.69271397    -0.80300
C362        C  0.18925358  0.30452901  0.68231391     0.79700
N363        N  0.16767453  0.32695396  0.69236890    -0.78600
C364        C  0.16910104  0.32863284  0.71212201     0.82100
N365        N  0.19243816  0.30803322  0.72190709    -0.78600
C366        C  0.21324139  0.28478639  0.71212233     0.82200
N367        N  0.21183923  0.28327474  0.69236528    -0.80300
N368        N  0.00414197  0.39314753  0.78887253    -0.06700
N369        N  0.47974925  0.36907065  0.79249930    -0.58800
N370        N  0.02708023  0.47445430  0.80297623    -0.06400
N371        N  0.01945931  0.99840938  0.81572146    -0.60900
N372        N  0.00272155  0.47429227  0.78919861    -0.06000
N373        N  0.47767920  0.49771598  0.79299346    -0.58800
N374        N  0.02774646  0.39422229  0.80302062    -0.05600
N375        N  0.01950076  0.37135809  0.81677399    -0.61300
C376        C  0.98978411  0.35564320  0.80984436     0.95500
C377        C  0.48919650  0.01327975  0.80901060     0.95300
N378        N  0.13549867  0.47585063  0.78917773    -0.06900
N379        N  0.16019606  0.99995759  0.79275237    -0.59400
N380        N  0.11157726  0.39488124  0.80289986    -0.05000
N381        N  0.11918183  0.37151356  0.81644292    -0.60600
N382        N  0.13593540  0.39457186  0.78905734    -0.06900
N383        N  0.16044654  0.37061032  0.79278561    -0.59600
N384        N  0.11143209  0.47500090  0.80319126    -0.04600
N385        N  0.12004985  0.99769491  0.81691579    -0.60700
Mn386      Mn  0.06945290  0.43470195  0.80356508     1.18400
C387        C  0.15037507  0.01282786  0.81033809     0.97600
C388        C  0.14951486  0.35644550  0.80984296     0.98200
N389        N  0.50273792  0.47467965  0.74368217    -0.06900
N390        N  0.47711628  0.49745832  0.74003331    -0.63200
N391        N  0.02777179  0.39448930  0.72919251    -0.05700
N392        N  0.01964645  0.37152467  0.71543340    -0.63900
N393        N  0.00394939  0.39363015  0.74329743    -0.06400
N394        N  0.47942080  0.36975728  0.73959104    -0.63500
N395        N  0.02653597  0.47470436  0.72953474    -0.05300
N396        N  0.01891710  0.99775178  0.71519976    -0.64200
Mn397      Mn  0.00236164  0.43390489  0.76626488     1.10700
C398        C  0.48901402  0.01318621  0.72220192     0.98800
C399        C  0.98959214  0.35618595  0.72225225     0.98900
N400        N  0.13551653  0.39437117  0.74323234    -0.06400
N401        N  0.15938784  0.36961688  0.73980227    -0.61800
N402        N  0.11126529  0.47548131  0.72938163    -0.05700
N403        N  0.11924798  0.99839547  0.71505707    -0.58500
N404        N  0.13557920  0.47569787  0.74320973    -0.07100
N405        N  0.15977229  0.00016477  0.73894460    -0.61400
N406        N  0.11169551  0.39515014  0.72917260    -0.06000
N407        N  0.11921649  0.37138858  0.71572187    -0.58600
Mn408      Mn  0.13680255  0.43514309  0.76614558     1.20200
Mn409      Mn  0.06936447  0.43505767  0.72872541     1.10100
Cl410      Cl  0.06953233  0.43480512  0.76617034    -0.86500
C411        C  0.14876470  0.35545743  0.72268458     0.95800
C412        C  0.14933865  0.01385278  0.72170641     0.95600
C413        C  0.27661218  0.06611503  0.92807168    -0.18400
C414        C  0.26586326  0.07800825  0.90974909    -0.20600
C415        C  0.23460051  0.06499306  0.90115385     0.20100
C416        C  0.21291835  0.04118280  0.91152472    -0.03500
C417        C  0.22374739  0.02918456  0.93005758    -0.06500
C418        C  0.25625308  0.04104521  0.93808513     0.20400
C419        C  0.20506390  0.49796437  0.93995260     0.18500
C420        C  0.17505065  0.48319760  0.93090542    -0.18000
C421        C  0.16380099  0.49531099  0.91267421    -0.20200
C422        C  0.18157143  0.02778462  0.90290901     0.20000
C423        C  0.17339481  0.03653261  0.88351348    -0.33300
C424        C  0.19630849  0.05836833  0.87262168     0.00700
C425        C  0.22588274  0.07379071  0.88193551    -0.24600
C426        C  0.26896033  0.02601429  0.95534106    -0.29200
C427        C  0.25051014  0.49694848  0.96524690     0.06400
C428        C  0.21923067  0.48319951  0.95700797    -0.27800
H429        H  0.30151382  0.07559890  0.93409864     0.11100
H430        H  0.28268319  0.09646619  0.90200024     0.12200
H431        H  0.16104769  0.46142867  0.93759871     0.11300
H432        H  0.14132308  0.48264377  0.90568094     0.10600
H433        H  0.15027786  0.02483635  0.87661222     0.15900
H434        H  0.24363296  0.09090679  0.87385570     0.11900
H435        H  0.29479467  0.03368028  0.96101772     0.14700
H436        H  0.20729152  0.45981997  0.96322739     0.14500
C437        C  0.47611815  0.36263153  0.91286726    -0.18400
C438        C  0.46434719  0.37450979  0.93110657    -0.20600
C439        C  0.43092108  0.36419485  0.93836362     0.20100
C440        C  0.40987393  0.34035472  0.92757796    -0.03500
C441        C  0.42191577  0.32811412  0.90931778    -0.06500
C442        C  0.45473640  0.34007344  0.90166707     0.20400
C443        C  0.40025702  0.30526311  0.89831257     0.18500
C444        C  0.36732535  0.29404789  0.90579340    -0.18000
C445        C  0.35519372  0.30649678  0.92376489    -0.20200
C446        C  0.37597747  0.33007647  0.93457558     0.20000
C447        C  0.36275548  0.34480668  0.95180538    -0.33300
C448        C  0.38291295  0.36964598  0.96205359     0.00700
C449        C  0.41733887  0.37855309  0.95570073    -0.24600
C450        C  0.46461499  0.33073166  0.88258195    -0.29200
C451        C  0.44212710  0.30941501  0.87118457     0.06400
C452        C  0.41086428  0.29552164  0.87954907    -0.27800
H453        H  0.50151303  0.37183717  0.90729637     0.11100
H454        H  0.48089245  0.39263389  0.93925802     0.12200
H455        H  0.35044541  0.27648325  0.89746745     0.11300
H456        H  0.32919982  0.29831191  0.92899871     0.10600
H457        H  0.33614010  0.33823574  0.95685081     0.15900
H458        H  0.43258880  0.39796553  0.96371372     0.11900
H459        H  0.48890720  0.34132852  0.87632729     0.14700
H460        H  0.39328500  0.27900155  0.87099742     0.14500
C461        C  0.18636905  0.15813539  0.60566029    -0.18400
C462        C  0.19453973  0.14987496  0.62498395    -0.20600
C463        C  0.18202324  0.11859165  0.63334194     0.20100
C464        C  0.16211577  0.09478528  0.62194600    -0.03500
C465        C  0.15406209  0.10300422  0.60238575    -0.06500
C466        C  0.16564192  0.13519287  0.59436834     0.20400
C467        C  0.13285109  0.07990509  0.59120374     0.18500
C468        C  0.12118815  0.04818049  0.59941929    -0.18000
C469        C  0.12929636  0.03998340  0.61879271    -0.20200
C470        C  0.14914229  0.06341264  0.63028997     0.20000
C471        C  0.15553841  0.05643526  0.65008077    -0.33300
C472        C  0.17485147  0.08038433  0.66163863     0.00700
C473        C  0.18839213  0.11115753  0.65302207    -0.24600
C474        C  0.15426813  0.14492633  0.57570246    -0.29200
C475        C  0.13109288  0.12314493  0.56513256     0.06400
C476        C  0.12172167  0.09004234  0.57251991    -0.27800
H477        H  0.19547226  0.18291418  0.59971021     0.11100
H478        H  0.20998745  0.16834919  0.63353211     0.12200
H479        H  0.10495514  0.03013742  0.59102739     0.11300
H480        H  0.11933157  0.01567273  0.62491980     0.10600
H481        H  0.14530816  0.03245288  0.65648466     0.15900
H482        H  0.20334502  0.12980194  0.66172570     0.11900
H483        H  0.16090698  0.17068499  0.57003347     0.14700
H484        H  0.10331241  0.07364100  0.56442065     0.14500
C485        C  0.02228122  0.31173877  0.60100946    -0.18400
C486        C  0.01591700  0.32066741  0.62048012    -0.20600
C487        C  0.49004925  0.30260940  0.63134966     0.20100
C488        C  0.46950593  0.27611036  0.62231975    -0.03500
C489        C  0.47583882  0.26715722  0.60266155    -0.06500
C490        C  0.00287489  0.28463439  0.59210668     0.20400
C491        C  0.45645403  0.23951090  0.59390174     0.18500
C492        C  0.43002106  0.22199832  0.60464667    -0.18000
C493        C  0.42355730  0.23107410  0.62409405    -0.20200
C494        C  0.44356737  0.25766143  0.63311759     0.20000
C495        C  0.43874997  0.26542416  0.65289181    -0.33300
C496        C  0.45978614  0.29113463  0.66218029     0.00700
C497        C  0.48503027  0.30998326  0.65120385    -0.24600
C498        C  0.01174815  0.27304056  0.57333740    -0.29200
C499        C  0.99436316  0.24393668  0.56519211     0.06400
C500        C  0.46557137  0.22833989  0.57504565    -0.27800
H501        H  0.04309795  0.32537237  0.59307470     0.11100
H502        H  0.03179697  0.34116891  0.62716226     0.12200
H503        H  0.41496055  0.20070206  0.59816145     0.11300
H504        H  0.40347273  0.21673469  0.63221262     0.10600
H505        H  0.41897975  0.25083788  0.66110648     0.15900
H506        H  0.50119226  0.33000306  0.65814011     0.11900
H507        H  0.03424716  0.28458001  0.56572548     0.14700
H508        H  0.45267797  0.20548100  0.56877445     0.14500
C509        C  0.09288072  0.30377136  0.92601871    -0.18400
C510        C  0.10090989  0.31070592  0.90650230    -0.20600
C511        C  0.13335644  0.29939409  0.89839948     0.20100
C512        C  0.15833416  0.28160103  0.91015373    -0.03500
C513        C  0.15042795  0.27497362  0.92991254    -0.06500
C514        C  0.11729029  0.28565277  0.93776508     0.20400
C515        C  0.17492310  0.25618163  0.94153281     0.18500
C516        C  0.20740204  0.24500020  0.93342882    -0.18000
C517        C  0.21524261  0.25160490  0.91383380    -0.20200
C518        C  0.19071295  0.26947635  0.90202468     0.20000
C519        C  0.19769729  0.27487023  0.88215794    -0.33300
C520        C  0.17282089  0.29242063  0.87033084     0.00700
C521        C  0.14090760  0.30494944  0.87864691    -0.24600
C522        C  0.10817220  0.27592462  0.95679746    -0.29200
C523        C  0.13146709  0.25518718  0.96787372     0.06400
C524        C  0.16543409  0.24681158  0.96060423    -0.27800
H525        H  0.06728469  0.31199004  0.93182220     0.11100
H526        H  0.08145068  0.32436191  0.89764781     0.12200
H527        H  0.22640349  0.23044010  0.94213073     0.11300
H528        H  0.24025790  0.24221785  0.90782961     0.10600
H529        H  0.22250814  0.26540912  0.87592134     0.15900
H530        H  0.12150941  0.31840983  0.86965319     0.11900
H531        H  0.08167969  0.28158155  0.96237302     0.14700
H532        H  0.18287658  0.23003653  0.96907317     0.14500
C533        C  0.52826863  0.04962333  0.92895609    -0.18400
C534        C  0.51976990  0.04200119  0.90955374    -0.20600
C535        C  0.49671601  0.06400665  0.89906421     0.20100
C536        C  0.48129300  0.09342435  0.90835360    -0.03500
C537        C  0.48977408  0.10106546  0.92791855    -0.06500
C538        C  0.51381410  0.07934307  0.93818112     0.20400
C539        C  0.47544531  0.13133881  0.93691190     0.18500
C540        C  0.45194090  0.15299314  0.92654537    -0.18000
C541        C  0.44333186  0.14525946  0.90721420    -0.20200
C542        C  0.45822364  0.11584170  0.89793409     0.20000
C543        C  0.45094432  0.10889758  0.87830745    -0.33300
C544        C  0.46664128  0.07999742  0.86881738     0.00700
C545        C  0.48931297  0.05749161  0.87936420    -0.24600
C546        C  0.02459598  0.08896718  0.95702551    -0.29200
C547        C  0.01198414  0.12023127  0.96545608     0.06400
C548        C  0.48651092  0.14057541  0.95569238    -0.27800
H549        H  0.54678153  0.03271576  0.93660520     0.11100
H550        H  0.53173633  0.01923605  0.90264482     0.12200
H551        H  0.44078440  0.17632855  0.93326449     0.11300
H552        H  0.42552565  0.16266278  0.89940612     0.10600
H553        H  0.43342131  0.12639534  0.87036650     0.15900
H554        H  0.50137972  0.03496675  0.87225716     0.11900
H555        H  0.04485026  0.07381116  0.96450691     0.14700
H556        H  0.47744490  0.16500987  0.96217685     0.14500
C557        C  0.38097601  0.08963396  0.62241752    -0.18400
C558        C  0.36782757  0.07784538  0.60448523    -0.20600
C559        C  0.38186107  0.04748021  0.59572194     0.20100
C560        C  0.41021670  0.02944074  0.60481462    -0.03500
C561        C  0.42359481  0.04145175  0.62284602    -0.06500
C562        C  0.40840483  0.07126813  0.63186870     0.20400
C563        C  0.45101862  0.02264964  0.63225635     0.18500
C564        C  0.46554959  0.99268109  0.62333728    -0.18000
C565        C  0.45213993  0.98063370  0.60554966    -0.20200
C566        C  0.42416659  0.99850855  0.59632777     0.20000
C567        C  0.40615294  0.48679506  0.57885491    -0.33300
C568        C  0.37620822  0.50327602  0.57072225     0.00700
C569        C  0.36279418  0.53425355  0.57911672    -0.24600
C570        C  0.41939703  0.08091449  0.65066717    -0.29200
C571        C  0.44492029  0.06072337  0.66070690     0.06400
C572        C  0.46193071  0.03278719  0.65094500    -0.27800
H573        H  0.36905543  0.11260885  0.62913268     0.11100
H574        H  0.34609418  0.09200814  0.59769570     0.12200
H575        H  0.98661640  0.97796912  0.63038945     0.11300
H576        H  0.46316315  0.95690775  0.59919994     0.10600
H577        H  0.41626343  0.46280774  0.57232637     0.15900
H578        H  0.33951563  0.54670161  0.57281288     0.11900
H579        H  0.40632294  0.10273113  0.65792471     0.14700
H580        H  0.48185000  0.01718242  0.65840041     0.14500
C581        C  0.27235335  0.30134107  0.60460441    -0.18400
C582        C  0.26128892  0.28841829  0.62271912    -0.20600
C583        C  0.23090361  0.30225880  0.63195588     0.20100
C584        C  0.21051716  0.32820582  0.62242904    -0.03500
C585        C  0.22168856  0.34128481  0.60415193    -0.06500
C586        C  0.25322595  0.32832238  0.59542967     0.20400
C587        C  0.20236765  0.36863532  0.59513181     0.18500
C588        C  0.17124021  0.38150432  0.60402274    -0.18000
C589        C  0.16013515  0.36847232  0.62209699    -0.20200
C590        C  0.18004977  0.34244865  0.63161824     0.20000
C591        C  0.17127649  0.33205603  0.65064058    -0.33300
C592        C  0.19303925  0.30821447  0.66083683     0.00700
C593        C  0.22182420  0.29216366  0.65100418    -0.24600
C594        C  0.26606788  0.34386829  0.57825976    -0.29200
C595        C  0.24790859  0.37227649  0.56984267     0.06400
C596        C  0.21551756  0.38382238  0.57792587    -0.27800
H597        H  0.29650539  0.29098249  0.59805667     0.11100
H598        H  0.27715487  0.26836770  0.62978748     0.12200
H599        H  0.15602712  0.40236840  0.59726048     0.11300
H600        H  0.13659268  0.37958216  0.62892503     0.10600
H601        H  0.14878819  0.34431675  0.65792191     0.15900
H602        H  0.23868929  0.27354848  0.65857933     0.11900
H603        H  0.29115323  0.33520888  0.57198120     0.14700
H604        H  0.20176279  0.40591617  0.57141072     0.14500
C605        C  0.19495256  0.95019901  0.10970732    -0.18400
C606        C  0.18959825  0.95940303  0.12920484    -0.20600
C607        C  0.20273807  0.99135728  0.13644952     0.20100
C608        C  0.22069311  0.01471630  0.12389809    -0.03500
C609        C  0.22590525  0.00553440  0.10417501    -0.06500
C610        C  0.21343031  0.97286552  0.09716239     0.20400
C611        C  0.24506816  0.02825379  0.09173294     0.18500
C612        C  0.25771255  0.06042424  0.09895569    -0.16400
C613        C  0.25233808  0.06961905  0.11850800    -0.20200
C614        C  0.23434212  0.04673335  0.13117742     0.20000
C615        C  0.23012340  0.05504448  0.15102395    -0.33300
C616        C  0.21228447  0.03176246  0.16360533     0.00700
C617        C  0.19860824  0.00005969  0.15611433    -0.24600
C618        C  0.22175733  0.96241703  0.07812743    -0.29200
C619        C  0.25369986  0.48825690  0.06730280     0.06400
C620        C  0.26038032  0.52245686  0.07405418    -0.27800
H621        H  0.18532842  0.92501167  0.10455027     0.11100
H622        H  0.17568974  0.94125114  0.13870484     0.12200
H623        H  0.27262439  0.58459733  0.09149254     0.11300
H624        H  0.26283424  0.09435951  0.12380571     0.10600
H625        H  0.24046784  0.07965132  0.15661427     0.15900
H626        H  0.18489995  0.98180042  0.16564430     0.11900
H627        H  0.23050482  0.43790089  0.07381622     0.14700
H628        H  0.27542591  0.54048962  0.06499934     0.14500
C629        C  0.12148328  0.02881851  0.40947971    -0.18400
C630        C  0.10827528  0.04024209  0.42751718    -0.20600
C631        C  0.12348992  0.06935932  0.43692403     0.20100
C632        C  0.15311399  0.08638265  0.42836981    -0.03500
C633        C  0.16639508  0.07487612  0.41015076    -0.06500
C634        C  0.15005499  0.04639022  0.40050485     0.20400
C635        C  0.19490584  0.09294247  0.40118456     0.18500
C636        C  0.21083574  0.12138656  0.41086199    -0.18000
C637        C  0.19769221  0.13280120  0.42889042    -0.20200
C638        C  0.16843895  0.11593307  0.43756500     0.20000
C639        C  0.15322175  0.12909029  0.45478160    -0.33300
C640        C  0.12284497  0.11321570  0.46286105     0.00700
C641        C  0.10868972  0.08274856  0.45425159    -0.24600
C642        C  0.16117990  0.03726525  0.38160467    -0.29200
C643        C  0.18785372  0.05680722  0.37196443     0.06400
C644        C  0.20565991  0.08359093  0.38225577    -0.27800
H645        H  0.10867675  0.00683756  0.40228683     0.11100
H646        H  0.08559836  0.02681607  0.43388368     0.12200
H647        H  0.23282298  0.13547269  0.40422090     0.11300
H648        H  0.20983140  0.15542346  0.43580970     0.10600
H649        H  0.16387951  0.15270128  0.46143937     0.15900
H650        H  0.08505504  0.07075141  0.46048463     0.11900
H651        H  0.14740564  0.01634079  0.37398375     0.14700
H652        H  0.22643548  0.09868008  0.37513605     0.14500
C653        C  0.43399559  0.46350316  0.42778346    -0.18400
C654        C  0.44148605  0.47040990  0.40819632    -0.20600
C655        C  0.42612951  0.99806710  0.39791581     0.20100
C656        C  0.40786622  0.02302307  0.40944833    -0.03500
C657        C  0.40185445  0.01637685  0.42941488    -0.06500
C658        C  0.41363084  0.48720841  0.43884959     0.20400
C659        C  0.38238530  0.04070421  0.44081725     0.18500
C660        C  0.37014831  0.07192216  0.43228575    -0.18000
C661        C  0.37629925  0.07859652  0.41250866    -0.20200
C662        C  0.39468889  0.05411109  0.40091705     0.20000
C663        C  0.39968263  0.05992748  0.38090324    -0.33300
C664        C  0.41780791  0.03511776  0.36929634     0.00700
C665        C  0.43112939  0.00435850  0.37798736    -0.24600
C666        C  0.40263133  0.47859731  0.45776969    -0.29200
C667        C  0.37944864  0.50083805  0.46811385     0.06400
C668        C  0.37334265  0.03219640  0.46011183    -0.27800
H669        H  0.44324371  0.43910625  0.43411943     0.11100
H670        H  0.95660602  0.45131148  0.39982782     0.12200
H671        H  0.35510007  0.09082056  0.44080385     0.11300
H672        H  0.36611250  0.10264887  0.40619695     0.10600
H673        H  0.38955874  0.08385388  0.37440496     0.15900
H674        H  0.44507516  0.98501617  0.36920499     0.11900
H675        H  0.40932538  0.45312610  0.46379635     0.14700
H676        H  0.35589011  0.04935359  0.46841457     0.14500
C677        C  0.22591283  0.24504944  0.12278355    -0.18400
C678        C  0.21455207  0.23243563  0.10463762    -0.20600
C679        C  0.18450907  0.24700067  0.09552102     0.20100
C680        C  0.16678104  0.27567609  0.10434548    -0.03500
C681        C  0.17840414  0.28854617  0.12258808    -0.06500
C682        C  0.20748505  0.27252065  0.13209026     0.20400
C683        C  0.15968708  0.31618294  0.13177701     0.18500
C684        C  0.13056886  0.33172165  0.12230191    -0.18000
C685        C  0.11888937  0.31882263  0.10432179    -0.20200
C686        C  0.13628942  0.29033152  0.09545042     0.20000
C687        C  0.12273207  0.27518956  0.07835172    -0.33300
C688        C  0.13925573  0.24565173  0.07004673     0.00700
C689        C  0.17080425  0.23237424  0.07826926    -0.24600
C690        C  0.21616385  0.28274215  0.15119152    -0.29200
C691        C  0.19575776  0.30842012  0.16104199     0.06400
C692        C  0.16884511  0.32629433  0.15078473    -0.27800
H693        H  0.24843869  0.23256910  0.12981728     0.11100
H694        H  0.22858548  0.21054293  0.09803017     0.12200
H695        H  0.11601621  0.35306582  0.12912379     0.11300
H696        H  0.09560921  0.33051200  0.09761428     0.10600
H697        H  0.09841939  0.28532804  0.07193357     0.15900
H698        H  0.18342420  0.20951606  0.07179916     0.11900
H699        H  0.23730859  0.26902677  0.15878255     0.14700
H700        H  0.15318110  0.34637638  0.15804902     0.14500
C701        C  0.44219381  0.14278331  0.10371782    -0.18400
C702        C  0.42969478  0.13272120  0.12208809    -0.20600
C703        C  0.44303215  0.10240598  0.13111861     0.20100
C704        C  0.46795895  0.08110463  0.12116065    -0.03500
C705        C  0.48049443  0.09117801  0.10258219    -0.06500
C706        C  0.46817133  0.12265510  0.09408495     0.20400
C707        C  0.00674385  0.07082418  0.09300966     0.18500
C708        C  0.01890119  0.03970823  0.10167736    -0.18000
C709        C  0.00647795  0.02974582  0.12010732    -0.20200
C710        C  0.48171095  0.05071541  0.13016242     0.20000
C711        C  0.47177924  0.04278152  0.14939110    -0.33300
C712        C  0.44851176  0.06500676  0.15984567     0.00700
C713        C  0.43322833  0.09404218  0.15029375    -0.24600
C714        C  0.48354393  0.13449207  0.07668658    -0.29200
C715        C  0.01117344  0.11547284  0.06782470     0.06400
C716        C  0.02180883  0.08302097  0.07553706    -0.27800
H717        H  0.43235481  0.16690110  0.09731557     0.11100
H718        H  0.41040793  0.14925741  0.12949565     0.12200
H719        H  0.03887823  0.02366493  0.09448615     0.11300
H720        H  0.01709429  0.00617621  0.12675668     0.10600
H721        H  0.48348265  0.02014047  0.15648200     0.15900
H722        H  0.41514801  0.11131714  0.15809078     0.11900
H723        H  0.47558512  0.15956613  0.07060671     0.14700
H724        H  0.04331279  0.06856529  0.06860667     0.14500
C725        C  0.18017621  0.39494212  0.42922300    -0.18400
C726        C  0.17305854  0.38594579  0.40984751    -0.20600
C727        C  0.19350288  0.36019528  0.40031633     0.20100
C728        C  0.22071728  0.34258185  0.41054514    -0.03500
C729        C  0.22799667  0.35173925  0.43009797    -0.06500
C730        C  0.20795181  0.37843902  0.43936634     0.20400
C731        C  0.25645208  0.33542262  0.44003085     0.18500
C732        C  0.27619589  0.30895908  0.43066519    -0.18000
C733        C  0.26867201  0.29958120  0.41136654    -0.20200
C734        C  0.24143679  0.31668080  0.40105456     0.20000
C735        C  0.23506508  0.30888121  0.38132850    -0.33300
C736        C  0.20840255  0.32685642  0.37089250     0.00700
C737        C  0.18757820  0.35226858  0.38063480    -0.24600
C738        C  0.21757570  0.38976745  0.45810530    -0.29200
C739        C  0.24766210  0.37552937  0.46734012     0.06400
C740        C  0.26607956  0.34744035  0.45864090    -0.27800
H741        H  0.16458093  0.41550094  0.43610180     0.11100
H742        H  0.15194539  0.39959226  0.40220134     0.12200
H743        H  0.29805222  0.29610549  0.43810718     0.11300
H744        H  0.28473470  0.27952108  0.40435627     0.10600
H745        H  0.25119837  0.28915153  0.37407286     0.15900
H746        H  0.16679128  0.36621655  0.37288727     0.11900
H747        H  0.20380557  0.41178890  0.46477418     0.14700
H748        H  0.28950489  0.33681761  0.46576035     0.14500
C749        C  0.45555533  0.39400067  0.10339130    -0.18400
C750        C  0.46229543  0.38494733  0.12278590    -0.20600
C751        C  0.44359094  0.35726500  0.13164381     0.20100
C752        C  0.41871017  0.33775933  0.12070489    -0.03500
C753        C  0.41184088  0.34693422  0.10113979    -0.06500
C754        C  0.42994787  0.37557035  0.09255826     0.20400
C755        C  0.38543292  0.32870831  0.09053861     0.18500
C756        C  0.36763195  0.30029841  0.09919322    -0.18000
C757        C  0.37474737  0.29096311  0.11851034    -0.20200
C758        C  0.39962212  0.31001686  0.12953231     0.20000
C759        C  0.40492822  0.30248618  0.14935640    -0.33300
C760        C  0.42890993  0.32249780  0.16054301     0.00700
C761        C  0.44860873  0.34944086  0.15139871    -0.24600
C762        C  0.42023439  0.38684719  0.07385148    -0.29200
C763        C  0.39149750  0.37093404  0.06415613     0.06400
C764        C  0.37546818  0.34083891  0.07205281    -0.27800
H765        H  0.46960639  0.41608822  0.09705213     0.11100
H766        H  0.48159063  0.40010865  0.13099234     0.12200
H767        H  0.34740836  0.28595355  0.09121165     0.11300
H768        H  0.36003371  0.26945356  0.12500380     0.10600
H769        H  0.38983218  0.28151546  0.15613421     0.15900
H770        H  0.46743326  0.36496710  0.15972478     0.11900
H771        H  0.43230065  0.41024291  0.06771620     0.14700
H772        H  0.35324196  0.32873995  0.06450280     0.14500
C773        C  0.02814561  0.30846029  0.42474541    -0.18400
C774        C  0.01684154  0.32121769  0.40668725    -0.20600
C775        C  0.48393104  0.31069394  0.39889339     0.20100
C776        C  0.46157305  0.28814383  0.40970075    -0.03500
C777        C  0.47281652  0.27553417  0.42801931    -0.06500
C778        C  0.00658747  0.28520290  0.43536624     0.20400
C779        C  0.45098823  0.25197922  0.43854621     0.18500
C780        C  0.41775488  0.24211167  0.43093740    -0.18000
C781        C  0.40674408  0.25441734  0.41271359    -0.20200
C782        C  0.42873133  0.27690090  0.40182578     0.20000
C783        C  0.41930336  0.28686664  0.38282786    -0.33300
C784        C  0.44233990  0.30786101  0.37157250     0.00700
C785        C  0.47389412  0.32085734  0.38007015    -0.24600
C786        C  0.01885785  0.27015366  0.45273043    -0.29200
C787        C  0.99778211  0.24568522  0.46278638     0.06400
C788        C  0.46352888  0.23742720  0.45600738    -0.27800
H789        H  0.05409195  0.31618452  0.43020623     0.11100
H790        H  0.03430788  0.33853408  0.39855771     0.12200
H791        H  0.40067469  0.22411962  0.43884969     0.11300
H792        H  0.38138920  0.24565395  0.40692336     0.10600
H793        H  0.39483696  0.27691229  0.37649462     0.15900
H794        H  0.49195079  0.33703535  0.37160201     0.11900
H795        H  0.04543581  0.27612631  0.45799463     0.14700
H796        H  0.44762828  0.21817880  0.46375944     0.14500
C797        C  0.43647921  0.81202836  0.35109565     0.79700
N798        N  0.45853382  0.83351232  0.34078595    -0.78600
C799        C  0.45923345  0.83216191  0.32102260     0.82100
N800        N  0.43823317  0.80889494  0.31149664    -0.78600
C801        C  0.41541225  0.78808356  0.32154669     0.82200
N802        N  0.41470604  0.78949534  0.34131896    -0.80300
C803        C  0.43226910  0.81430189  0.18153947     0.79700
N804        N  0.41327537  0.78954980  0.19149747    -0.78600
C805        C  0.41920465  0.78419723  0.21083110     0.82100
N806        N  0.44409046  0.80370926  0.22019462    -0.78600
C807        C  0.96248215  0.82897561  0.21055536     0.82200
N808        N  0.45655209  0.83421581  0.19128894    -0.80300
C809        C  0.20289576  0.82211539  0.34947259     0.79700
N810        N  0.22137956  0.79625095  0.34014271    -0.78600
C811        C  0.21386674  0.78791274  0.32132074     0.82100
N812        N  0.18779209  0.80556296  0.31175311    -0.78600
C813        C  0.16973956  0.83186503  0.32079182     0.82200
N814        N  0.17730282  0.84000734  0.33959524    -0.80300
C815        C  0.44270675  0.56011369  0.18211146     0.79700
N816        N  0.42067982  0.58169865  0.19242373    -0.78600
C817        C  0.42031816  0.58085868  0.21219565     0.82100
N818        N  0.44240149  0.55865561  0.22176955    -0.78600
C819        C  0.46365550  0.53617761  0.21169913     0.82200
N820        N  0.46395445  0.53708105  0.19189235    -0.80300
N821        N  0.02364876  0.99732190  0.28897031    -0.06700
N822        N  0.99988802  0.52100595  0.29288806    -0.58800
N823        N  0.10562869  0.97324583  0.30300997    -0.06400
N824        N  0.12912422  0.98125812  0.31664898    -0.60900
N825        N  0.10629377  0.99678499  0.28899766    -0.06000
N826        N  0.13170144  0.52013525  0.29315637    -0.58800
N827        N  0.02380447  0.97354551  0.30284310    -0.05600
N828        N  0.99905962  0.98062707  0.31599288    -0.61300
C829        C  0.98480145  0.51028269  0.30977042     0.95500
C830        C  0.14487047  0.01071833  0.30976738     0.95300
N831        N  0.10497035  0.86641972  0.28907314    -0.06900
N832        N  0.12837783  0.84151846  0.29300394    -0.59400
N833        N  0.02329579  0.89110725  0.30281224    -0.05000
N834        N  0.00050540  0.88273692  0.31675637    -0.60600
N835        N  0.02249579  0.86761562  0.28871813    -0.06900
N836        N  0.99865645  0.84311952  0.29262461    -0.59600
N837        N  0.10477115  0.89027698  0.30297127    -0.04600
N838        N  0.12768915  0.88187204  0.31677986    -0.60700
Mn839      Mn  0.06441997  0.93207892  0.30349711     1.18400
C840        C  0.14236803  0.85160640  0.31026326     0.97600
C841        C  0.48507452  0.85304325  0.31005089     0.98200
N842        N  0.10620180  0.99728244  0.24361972    -0.06900
N843        N  0.13092888  0.02122732  0.24037406    -0.63200
N844        N  0.02451272  0.97425969  0.22918533    -0.05700
N845        N  0.00298310  0.98415777  0.21497013    -0.63900
N846        N  0.02391392  0.99745986  0.24345617    -0.06400
N847        N  0.00194431  0.52254503  0.24002841    -0.63500
N848        N  0.10602472  0.97364767  0.22960441    -0.05300
N849        N  0.13036758  0.98130150  0.21635620    -0.64200
Mn850      Mn  0.06499004  0.99825658  0.26627294     1.10700
C851        C  0.14581651  0.01079656  0.22340276     0.98800
C852        C  0.98848228  0.01433698  0.22176520     0.98900
N853        N  0.02362572  0.86717848  0.24302323    -0.06400
N854        N  0.00132104  0.84153185  0.23880608    -0.61800
N855        N  0.10577532  0.89042766  0.22930138    -0.05700
N856        N  0.12951169  0.88193396  0.21579522    -0.58500
N857        N  0.10596090  0.86713823  0.24346144    -0.07100
N858        N  0.13025773  0.84281329  0.24011144    -0.61400
N859        N  0.02420595  0.89058880  0.22891539    -0.06000
N860        N  0.00263115  0.88091131  0.21464888    -0.58600
Mn861      Mn  0.06423124  0.86611371  0.26604642     1.20200
Mn862      Mn  0.06509213  0.93225555  0.22860836     1.10100
Cl863      Cl  0.06465078  0.93216069  0.26608169    -0.86500
C864        C  0.48837028  0.85045870  0.22118180     0.95800
C865        C  0.14480919  0.85243093  0.22291689     0.95600
C866        C  0.19667107  0.80993990  0.18336341     0.79700
N867        N  0.17387170  0.83188024  0.19294684    -0.78600
C868        C  0.17171535  0.83134000  0.21271362     0.82100
N869        N  0.19199564  0.80835697  0.22296128    -0.78600
C870        C  0.21555415  0.78717498  0.21359862     0.82200
N871        N  0.21768015  0.78792283  0.19386863    -0.80300
C872        C  0.42577213  0.54288574  0.34916835     0.79700
N873        N  0.45027477  0.52346897  0.33921942    -0.78600
C874        C  0.95698857  0.52996636  0.32010701     0.82100
N875        N  0.43908837  0.55599072  0.31084975    -0.78600
C876        C  0.41398471  0.57494413  0.32050498     0.82200
N877        N  0.40747305  0.56844374  0.33964007    -0.80300
C878        C  0.19335438  0.55210745  0.35143515     0.79700
N879        N  0.21516680  0.57466039  0.34160919    -0.78600
C880        C  0.21497486  0.57562559  0.32178630     0.82100
N881        N  0.19250079  0.55433256  0.31176767    -0.78600
C882        C  0.17143712  0.53108395  0.32134767     0.82200
N883        N  0.17177318  0.53019829  0.34111591    -0.80300
C884        C  0.21152040  0.53756852  0.18597201     0.79700
N885        N  0.18599519  0.51919867  0.19565435    -0.78600
C886        C  0.17745409  0.52733148  0.21431888     0.82100
N887        N  0.19463194  0.55398286  0.22347080    -0.78600
C888        C  0.22068963  0.57210050  0.21410451     0.82200
N889        N  0.22896691  0.56402469  0.19530655    -0.80300
N890        N  0.38064413  0.72389846  0.29011169    -0.06700
N891        N  0.40498870  0.74799007  0.29375942    -0.58800
N892        N  0.35774731  0.64275482  0.30422375    -0.06400
N893        N  0.36491891  0.61851156  0.31737451    -0.60900
N894        N  0.38206462  0.64265672  0.29035260    -0.06000
N895        N  0.40603113  0.61796522  0.29364084    -0.58800
N896        N  0.35676193  0.72302140  0.30422620    -0.05600
N897        N  0.36485151  0.74605760  0.31795585    -0.61300
C898        C  0.39470472  0.76164130  0.31105764     0.95500
C899        C  0.39491781  0.60316027  0.31048907     0.95300
N900        N  0.24995096  0.64006105  0.29025982    -0.06900
N901        N  0.22573846  0.61572996  0.29385487    -0.59400
N902        N  0.27229751  0.72174432  0.30451895    -0.05000
N903        N  0.26418105  0.74534606  0.31797024    -0.60600
N904        N  0.24806966  0.72148739  0.29067349    -0.06900
N905        N  0.22321931  0.74522849  0.29427356    -0.59600
N906        N  0.27357202  0.64118471  0.30441979    -0.04600
N907        N  0.26546604  0.61810002  0.31812089    -0.60700
Mn908      Mn  0.31512698  0.68222545  0.30494835     1.18400
C909        C  0.23581757  0.60216876  0.31119375     0.97600
C910        C  0.23365831  0.75991173  0.31128888     0.98200
N911        N  0.38262051  0.64214934  0.24465172    -0.06900
N912        N  0.40804179  0.61919911  0.24071858    -0.63200
N913        N  0.35809499  0.72286925  0.23031708    -0.05700
N914        N  0.36730138  0.74398602  0.21587000    -0.63900
N915        N  0.38236945  0.72347602  0.24415308    -0.06400
N916        N  0.40827496  0.74547540  0.23949867    -0.63500
N917        N  0.35891904  0.64266397  0.23053284    -0.05300
N918        N  0.36815170  0.62064473  0.21649863    -0.64200
Mn919      Mn  0.38299523  0.68309217  0.26736404     1.10700
C920        C  0.39853067  0.60591191  0.22320913     0.98800
C921        C  0.39847004  0.75811786  0.22188366     0.98900
N922        N  0.24946007  0.72225543  0.24491981    -0.06400
N923        N  0.22515852  0.74656587  0.24144284    -0.61800
N924        N  0.27487472  0.64155129  0.23066627    -0.05700
N925        N  0.26856123  0.61708782  0.21744020    -0.58500
N926        N  0.25038680  0.64082233  0.24443547    -0.07100
N927        N  0.22710927  0.61557004  0.24097228    -0.61400
N928        N  0.27374953  0.72205994  0.23101625    -0.06000
N929        N  0.26610722  0.74572861  0.21763416    -0.58600
Mn930      Mn  0.24829266  0.68112589  0.26754984     1.20200
Mn931      Mn  0.31630210  0.68232125  0.23011599     1.10100
Cl932      Cl  0.31567877  0.68229285  0.26751443    -0.86500
C933        C  0.23605562  0.76104791  0.22446054     0.95800
C934        C  0.23883823  0.60101526  0.22413949     0.95600
N935        N  0.31548453  0.93816823  0.54870260    -0.37200
N936        N  0.27391423  0.90194883  0.51860206    -0.57700
N937        N  0.31469738  0.93981659  0.48930609    -0.37200
N938        N  0.35316767  0.97927913  0.51922894    -0.57700
C939        C  0.29060519  0.92174599  0.55972229     0.26400
C940        C  0.33128809  0.96279736  0.56003443     0.26400
C941        C  0.28978863  0.92433552  0.47791249     0.26400
C942        C  0.33181822  0.96389239  0.47826483     0.26400
C943        C  0.26311433  0.88324784  0.53423093     0.35000
C944        C  0.26214849  0.88464533  0.50265082     0.35000
C945        C  0.37150232  0.98984263  0.53510804     0.35000
C946        C  0.37211463  0.98973394  0.50350702     0.35000
C947        C  0.29095051  0.93584906  0.57839862    -0.22500
C948        C  0.31648602  0.96169069  0.57858470    -0.22500
C949        C  0.29136442  0.93867309  0.45933804    -0.22500
C950        C  0.31769208  0.96355909  0.45957163    -0.22500
C951        C  0.24372943  0.85419323  0.52820796    -0.23500
C952        C  0.24308785  0.85511165  0.50815620    -0.23500
C953        C  0.40198973  0.00779753  0.52945639    -0.23500
C954        C  0.40242076  0.00763340  0.50938172    -0.23500
C955        C  0.26901046  0.89302906  0.55383772    -0.18900
C956        C  0.36023084  0.98470770  0.55457139    -0.18900
C957        C  0.36163613  0.98433279  0.48397356    -0.18900
C958        C  0.26739632  0.89591368  0.48325265    -0.18900
H959        H  0.27479726  0.92812852  0.59075932     0.14100
H960        H  0.32363905  0.97746382  0.59111639     0.14100
H961        H  0.27573558  0.93160262  0.44669438     0.14100
H962        H  0.32587254  0.97913885  0.44716854     0.14100
H963        H  0.23117214  0.83454408  0.53730558     0.12300
H964        H  0.23003840  0.83628906  0.49872601     0.12300
H965        H  0.41504060  0.52476506  0.53904562     0.12300
H966        H  0.41583810  0.52471993  0.50046985     0.12300
H967        H  0.32278393  0.93137259  0.53465483     0.25600
H968        H  0.32141781  0.93269768  0.50334111     0.25600
N969        N  0.07642440  0.68002591  0.04794440    -0.37200
N970        N  0.03911865  0.64033748  0.01787501    -0.57700
N971        N  0.07317814  0.68500252  0.98886768    -0.37200
N972        N  0.11380460  0.72162203  0.01875321    -0.57700
C973        C  0.06150152  0.65387553  0.05852393     0.26400
C974        C  0.10259709  0.69454788  0.05890382     0.26400
C975        C  0.05935776  0.65947570  0.97742018     0.26400
C976        C  0.09689712  0.70302835  0.97790662     0.26400
C977        C  0.02064640  0.62886575  0.03351835     0.35000
C978        C  0.02088902  0.62970279  0.00198646     0.35000
C979        C  0.12511882  0.73852242  0.03489366     0.35000
C980        C  0.12191269  0.74240778  0.00345803     0.35000
C981        C  0.07824430  0.65181316  0.07647403    -0.22500
C982        C  0.10414859  0.67733862  0.07671173    -0.22500
C983        C  0.07428475  0.66154139  0.95892684    -0.22500
C984        C  0.09787492  0.68896744  0.95922213    -0.22500
C985        C  0.49083051  0.61022914  0.02755237    -0.23500
C986        C  0.49108204  0.61063416  0.00749159    -0.23500
C987        C  0.14111851  0.77006489  0.02979626    -0.23500
C988        C  0.13897382  0.77256368  0.00981331    -0.23500
C989        C  0.03149270  0.63356367  0.05302256    -0.18900
C990        C  0.12293094  0.72473975  0.05396875    -0.18900
C991        C  0.11611606  0.73317360  0.98382485    -0.18900
C992        C  0.03165038  0.63608572  0.98263049    -0.18900
H993        H  0.07210482  0.63412462  0.08834237     0.14100
H994        H  0.12145689  0.68299226  0.08890477     0.14100
H995        H  0.06842730  0.64536463  0.94635151     0.14100
H996        H  0.11361886  0.69772630  0.94691861     0.14100
H997        H  0.47120396  0.59740569  0.03668435     0.12300
H998        H  0.47160523  0.59836890  0.99805472     0.12300
H999        H  0.15337104  0.78909290  0.03941536     0.12300
H1000       H  0.14924093  0.79380348  0.00096470     0.12300
H1001       H  0.06731942  0.68912180  0.03464372     0.25600
H1002       H  0.06511727  0.69135010  0.00288174     0.25600
N1003       N  0.05960910  0.67849592  0.48446736    -0.37200
N1004       N  0.09908940  0.64109943  0.51457872    -0.57700
N1005       N  0.06137995  0.68291582  0.54386801    -0.37200
N1006       N  0.01868079  0.71707130  0.51400756    -0.57700
C1007       C  0.07544514  0.65321291  0.47352078     0.26400
C1008       C  0.03489075  0.69455034  0.47321830     0.26400
C1009       C  0.07885191  0.65969187  0.55527875     0.26400
C1010       C  0.03567694  0.69800186  0.55496510     0.26400
C1011       C  0.11630163  0.62815942  0.49880160     0.35000
C1012       C  0.11845344  0.63184395  0.53034399     0.35000
C1013       C  0.00735533  0.73451195  0.49809240     0.35000
C1014       C  0.00674061  0.73525863  0.52962399     0.35000
C1015       C  0.06069926  0.65354811  0.45496843    -0.22500
C1016       C  0.03524892  0.67954513  0.45478321    -0.22500
C1017       C  0.06434926  0.66033494  0.57389718    -0.22500
C1018       C  0.03727591  0.68442368  0.57371955    -0.22500
C1019       C  0.14648431  0.60992552  0.50462853    -0.23500
C1020       C  0.14791451  0.61240215  0.52463297    -0.23500
C1021       C  0.48749787  0.76365670  0.50361561    -0.23500
C1022       C  0.48700704  0.76404310  0.52365458    -0.23500
C1023       C  0.10434243  0.63138298  0.47931934    -0.18900
C1024       C  0.01334423  0.72363064  0.47867965    -0.18900
C1025       C  0.01234214  0.72533050  0.54915339    -0.18900
C1026       C  0.10877624  0.63917139  0.54984103    -0.18900
H1027       H  0.06783629  0.63723113  0.44263866     0.14100
H1028       H  0.01909628  0.68677585  0.44236532     0.14100
H1029       H  0.07258261  0.64526140  0.58646477     0.14100
H1030       H  0.02110939  0.69136963  0.58621620     0.14100
H1031       H  0.16541919  0.59614947  0.49545712     0.12300
H1032       H  0.16804777  0.60086644  0.53391839     0.12300
H1033       H  0.47448658  0.78248250  0.49420325     0.12300
H1034       H  0.47366338  0.78323391  0.53276931     0.12300
H1035       H  0.06668627  0.68593038  0.49841282     0.25600
H1036       H  0.06818630  0.68964688  0.52975252     0.25600
N1037       N  0.31701310  0.93419528  0.98457279    -0.37200
N1038       N  0.27206570  0.96549852  0.01467818    -0.57700
N1039       N  0.31030774  0.92323527  0.04364803    -0.37200
N1040       N  0.35569331  0.89253541  0.01365489    -0.57700
C1041       C  0.29544792  0.95413310  0.97323521     0.26400
C1042       C  0.33797877  0.91470898  0.97260635     0.26400
C1043       C  0.29216995  0.94579656  0.05529623     0.26400
C1044       C  0.33605223  0.90824777  0.05473281     0.26400
C1045       C  0.25678926  0.98130460  0.99921286     0.35000
C1046       C  0.25379334  0.97597934  0.03061515     0.35000
C1047       C  0.37031954  0.87814233  0.99755423     0.35000
C1048       C  0.36876652  0.87467387  0.02902907     0.35000
C1049       C  0.30339426  0.94761397  0.95378291    -0.22500
C1050       C  0.33007641  0.92295257  0.95339026    -0.22500
C1051       C  0.30615431  0.94450590  0.07400833    -0.22500
C1052       C  0.33357799  0.92088870  0.07366604    -0.22500
C1053       C  0.22930935  0.49706341  0.00650767    -0.23500
C1054       C  0.23033856  0.49608836  0.02654880    -0.23500
C1055       C  0.39309463  0.85098889  0.00275840    -0.23500
C1056       C  0.39211637  0.84882915  0.02274621    -0.23500
C1057       C  0.26810377  0.97751007  0.97963258    -0.18900
C1058       C  0.36341520  0.88887787  0.97821483    -0.18900
C1059       C  0.36120466  0.88262829  0.04866281    -0.18900
C1060       C  0.26286214  0.96729296  0.04995537    -0.18900
H1061       H  0.29079627  0.95886094  0.94106209     0.14100
H1062       H  0.34186211  0.91194174  0.94031975     0.14100
H1063       H  0.29769741  0.95922283  0.08671469     0.14100
H1064       H  0.34983709  0.91398769  0.08608751     0.14100
H1065       H  0.20851224  0.50886695  0.99778173     0.12300
H1066       H  0.21059604  0.50708501  0.03635010     0.12300
H1067       H  0.40876670  0.83443486  0.99316763     0.12300
H1068       H  0.40701698  0.83052960  0.03162550     0.12300
H1069       H  0.31747102  0.93386182  0.99957499     0.25600
H1070       H  0.30432954  0.91728238  0.02928747     0.25600
C1071       C  0.44905527  0.80714740  0.85040972     0.79700
N1072       N  0.42739098  0.78470282  0.84054597    -0.78600
C1073       C  0.42621376  0.78503319  0.82082764     0.82100
N1074       N  0.44654165  0.80831219  0.81079455    -0.78600
C1075       C  0.46917615  0.83005415  0.82040402     0.82200
N1076       N  0.47019129  0.82964072  0.84020028    -0.80300
C1077       C  0.45742441  0.57116810  0.84935712     0.79700
N1078       N  0.47562282  0.54589006  0.83949851    -0.78600
C1079       C  0.46828238  0.53920848  0.82050881     0.82100
N1080       N  0.44251962  0.55782314  0.81127620    -0.78600
C1081       C  0.42470214  0.58362760  0.82089197     0.82200
N1082       N  0.43220360  0.59023438  0.83987668    -0.80300
C1083       C  0.19184441  0.56002882  0.85223267     0.79700
N1084       N  0.17069986  0.53759054  0.84194230    -0.78600
C1085       C  0.17186137  0.53712267  0.82214625     0.82100
N1086       N  0.19443691  0.55892451  0.81260109    -0.78600
C1087       C  0.21480897  0.58213567  0.82261950     0.82200
N1088       N  0.21369894  0.58247568  0.84240139    -0.80300
C1089       C  0.18111290  0.79993155  0.84986072     0.79700
N1090       N  0.16292543  0.82499397  0.83986589    -0.78600
C1091       C  0.17032037  0.83117095  0.82080175     0.82100
N1092       N  0.19587828  0.81206619  0.81164389    -0.78600
C1093       C  0.21356341  0.78644220  0.82137327     0.82200
N1094       N  0.20626889  0.78050913  0.84045874    -0.80300
C1095       C  0.18207488  0.57296680  0.68325961     0.79700
N1096       N  0.20666434  0.59205034  0.69328358    -0.78600
C1097       C  0.21329871  0.58509386  0.71232580     0.82100
N1098       N  0.19522432  0.55902471  0.72144018    -0.78600
C1099       C  0.17011314  0.54031626  0.71174993     0.82200
N1100       N  0.16360428  0.54724612  0.69265856    -0.80300
C1101       C  0.44482314  0.56195244  0.68280716     0.79700
N1102       N  0.46621591  0.53909830  0.69255395    -0.78600
C1103       C  0.46495379  0.53716055  0.71229041     0.82100
N1104       N  0.44187489  0.55780265  0.72236338    -0.78600
C1105       C  0.42132173  0.58147444  0.71283768     0.82200
N1106       N  0.42269518  0.58336330  0.69312047    -0.80300
N1107       N  0.35863539  0.61885432  0.79037061    -0.06700
N1108       N  0.38239689  0.59407986  0.79378852    -0.58800
N1109       N  0.27740863  0.64340821  0.80471797    -0.06400
N1110       N  0.25543936  0.63388549  0.81888334    -0.60900
N1111       N  0.27629624  0.62044160  0.79034945    -0.06000
N1112       N  0.25313119  0.59537859  0.79423986    -0.58800
N1113       N  0.35900443  0.64255107  0.80436168    -0.05600
N1114       N  0.38270247  0.63405202  0.81777363    -0.61300
C1115       C  0.39720809  0.60395221  0.81085189     0.95500
C1116       C  0.24022393  0.60414713  0.81195710     0.95300
N1117       N  0.27874099  0.75034579  0.79048787    -0.06900
N1118       N  0.25522530  0.77528257  0.79406640    -0.59400
N1119       N  0.36031831  0.72601859  0.80439720    -0.05000
N1120       N  0.38399855  0.73451011  0.81787003    -0.60600
N1121       N  0.36103103  0.74906570  0.79012652    -0.06900
N1122       N  0.38559965  0.77312640  0.79332169    -0.59600
N1123       N  0.27856544  0.72684523  0.80453538    -0.04600
N1124       N  0.25515305  0.73562423  0.81812907    -0.60700
Mn1125     Mn  0.31883132  0.68473038  0.80519286     1.18400
C1126       C  0.24071414  0.76572005  0.81125977     0.97600
C1127       C  0.39983793  0.76363610  0.81054749     0.98200
N1128       N  0.27659920  0.62026565  0.74469704    -0.06900
N1129       N  0.25320910  0.59549567  0.74054141    -0.63200
N1130       N  0.35898910  0.64246427  0.73090301    -0.05700
N1131       N  0.38148950  0.63320953  0.71697330    -0.63900
N1132       N  0.35891831  0.61894490  0.74493346    -0.06400
N1133       N  0.38186387  0.59360495  0.74105307    -0.63500
N1134       N  0.27751969  0.64390605  0.73073108    -0.05300
N1135       N  0.25506934  0.63543837  0.71666679    -0.64200
Mn1136     Mn  0.31754952  0.61869448  0.76760243     1.10700
C1137       C  0.23994074  0.60538357  0.72310925     0.98800
C1138       C  0.39582365  0.60299192  0.72367808     0.98900
N1139       N  0.36085939  0.74939069  0.74486528    -0.06400
N1140       N  0.38457675  0.77401535  0.74098051    -0.61800
N1141       N  0.27899444  0.72671883  0.73083193    -0.05700
N1142       N  0.25651176  0.73558279  0.71689893    -0.58500
N1143       N  0.27845720  0.75015227  0.74495254    -0.07100
N1144       N  0.25508783  0.77508807  0.74111187    -0.61400
N1145       N  0.36047499  0.72554794  0.73096214    -0.06000
N1146       N  0.38355883  0.73378938  0.71714400    -0.58600
Mn1147     Mn  0.31972604  0.75071672  0.76763892     1.20200
Mn1148     Mn  0.31903533  0.68466557  0.73028593     1.10100
Cl1149     Cl  0.31875133  0.68469183  0.76769723    -0.86500
C1150       C  0.39857237  0.76383004  0.72372875     0.95800
C1151       C  0.24154011  0.76549522  0.72367163     0.95600
C1152       C  0.45536590  0.79617308  0.68354604     0.79700
N1153       N  0.43103142  0.77731174  0.69382673    -0.78600
C1154       C  0.42531434  0.78398578  0.71297405     0.82100
N1155       N  0.44397954  0.80980069  0.72198367    -0.78600
C1156       C  0.46896552  0.82831895  0.71200515     0.82200
N1157       N  0.47461229  0.82151043  0.69279470    -0.80300
C1158       C  0.19377468  0.80761940  0.68288302     0.79700
N1159       N  0.17112422  0.82913604  0.69279891    -0.78600
C1160       C  0.17110516  0.82975390  0.71256269     0.82100
N1161       N  0.19406239  0.80904268  0.72253302    -0.78600
C1162       C  0.21586288  0.78660491  0.71283547     0.82200
N1163       N  0.21592063  0.78612677  0.69305278    -0.80300
N1164       N  0.00390695  0.89365137  0.78843113    -0.06700
N1165       N  0.47943639  0.86967800  0.79223319    -0.58800
N1166       N  0.02723994  0.97479198  0.80228912    -0.06400
N1167       N  0.01886009  0.49762057  0.81659524    -0.60900
N1168       N  0.00302937  0.97483712  0.78844128    -0.06000
N1169       N  0.47847335  0.99883406  0.79201449    -0.58800
N1170       N  0.02785260  0.89456229  0.80242867    -0.05600
N1171       N  0.01976163  0.87173596  0.81622030    -0.61300
C1172       C  0.98980126  0.85616619  0.80952098     0.95500
C1173       C  0.48819846  0.51204913  0.81005983     0.95300
N1174       N  0.13510183  0.97683730  0.78862950    -0.06900
N1175       N  0.16078033  0.49872435  0.79345545    -0.59400
N1176       N  0.11190003  0.89560594  0.80269247    -0.05000
N1177       N  0.11990119  0.87279691  0.81646942    -0.60600
N1178       N  0.13646804  0.89553507  0.78896520    -0.06900
N1179       N  0.16149594  0.87223302  0.79299348    -0.59600
N1180       N  0.11124497  0.97580761  0.80273462    -0.04600
N1181       N  0.12028598  0.49667898  0.81744724    -0.60700
Mn1182     Mn  0.06949999  0.93519080  0.80307244     1.18400
C1183       C  0.15083380  0.51156621  0.81103900     0.97600
C1184       C  0.15069169  0.85825541  0.81013368     0.98200
N1185       N  0.50320578  0.97505965  0.74285878    -0.06900
N1186       N  0.47875710  0.99919160  0.73940934    -0.63200
N1187       N  0.02760858  0.89412501  0.72881737    -0.05700
N1188       N  0.01941426  0.87084335  0.71521868    -0.63900
N1189       N  0.00352399  0.89386495  0.74280082    -0.06400
N1190       N  0.47878520  0.87012591  0.73918838    -0.63500
N1191       N  0.02705405  0.97450017  0.72874845    -0.05300
N1192       N  0.01709996  0.49700517  0.71573673    -0.64200
Mn1193     Mn  0.00231391  0.93435202  0.76564086     1.10700
C1194       C  0.48651946  0.51124746  0.72266028     0.98800
C1195       C  0.98907409  0.85594927  0.72202265     0.98900
N1196       N  0.13576619  0.89478764  0.74327539    -0.06400
N1197       N  0.16011310  0.87045924  0.74003689    -0.61800
N1198       N  0.11137207  0.97526101  0.72875109    -0.05700
N1199       N  0.11953499  0.49831889  0.71561051    -0.58500
N1200       N  0.13537151  0.97611423  0.74272814    -0.07100
N1201       N  0.16055772  0.49906121  0.73926392    -0.61400
N1202       N  0.11194543  0.89486108  0.72920333    -0.06000
N1203       N  0.12003157  0.87105503  0.71588406    -0.58600
Mn1204     Mn  0.13681227  0.93586966  0.76585511     1.20200
Mn1205     Mn  0.06955696  0.93466419  0.72825470     1.10100
Cl1206     Cl  0.06956936  0.93503293  0.76569628    -0.86500
C1207       C  0.14983037  0.85582386  0.72301311     0.95800
C1208       C  0.15016610  0.51294721  0.72207455     0.95600
C1209       C  0.27030111  0.56999063  0.93102737    -0.18400
C1210       C  0.25940464  0.58167330  0.91266862    -0.20600
C1211       C  0.23064397  0.56553745  0.90312880     0.20100
C1212       C  0.21147085  0.53861903  0.91260996    -0.03500
C1213       C  0.22261181  0.52664485  0.93109150    -0.06500
C1214       C  0.25271604  0.54188376  0.94009398     0.20400
C1215       C  0.20323140  0.00371436  0.93996877     0.18500
C1216       C  0.17092660  0.99225029  0.93182643    -0.18000
C1217       C  0.16016887  0.00420803  0.91345349    -0.20200
C1218       C  0.18255014  0.52220459  0.90313292     0.20000
C1219       C  0.17433607  0.53138682  0.88384225    -0.33300
C1220       C  0.19511193  0.55629492  0.87374117     0.00700
C1221       C  0.22215392  0.57439447  0.88385050    -0.24600
C1222       C  0.26611082  0.52725308  0.95732069    -0.29200
C1223       C  0.25003364  0.99876747  0.96441673     0.06400
C1224       C  0.21654406  0.98862151  0.95716251    -0.27800
H1225       H  0.29334270  0.58205875  0.93779624     0.11100
H1226       H  0.27425356  0.60254404  0.90564316     0.12200
H1227       H  0.15465070  0.97301026  0.93932760     0.11300
H1228       H  0.13579829  0.99395736  0.90717220     0.10600
H1229       H  0.15312692  0.51755373  0.87635293     0.15900
H1230       H  0.23814004  0.59391938  0.87638133     0.11900
H1231       H  0.29029707  0.53766943  0.96376236     0.14700
H1232       H  0.20205686  0.96753276  0.96423167     0.14500
C1233       C  0.47263662  0.87250365  0.91139684    -0.18400
C1234       C  0.46021490  0.88426123  0.92953268    -0.20600
C1235       C  0.42928831  0.86972809  0.93779911     0.20100
C1236       C  0.41174250  0.84183782  0.92819396    -0.03500
C1237       C  0.42440552  0.82986014  0.90998994    -0.06500
C1238       C  0.45439545  0.84593440  0.90128690     0.20400
C1239       C  0.40590820  0.80304464  0.90005594     0.18500
C1240       C  0.37579490  0.78754462  0.90864036    -0.18000
C1241       C  0.36307896  0.79958025  0.92659085    -0.20200
C1242       C  0.38043195  0.82713195  0.93626983     0.20000
C1243       C  0.36604843  0.84137696  0.95337432    -0.33300
C1244       C  0.38238580  0.87024805  0.96234657     0.00700
C1245       C  0.41450569  0.88370448  0.95494285    -0.24600
C1246       C  0.46430452  0.83654398  0.88221245    -0.29200
C1247       C  0.44448020  0.81135856  0.87176778     0.06400
C1248       C  0.41647468  0.79355503  0.88122082    -0.27800
H1249       H  0.49587060  0.88494094  0.90500894     0.11100
H1250       H  0.47412131  0.90551321  0.93678672     0.12200
H1251       H  0.36138300  0.76686711  0.90117160     0.11300
H1252       H  0.33912424  0.78796295  0.93265493     0.10600
H1253       H  0.34119264  0.83126686  0.95922228     0.15900
H1254       H  0.42685021  0.90610462  0.96199831     0.11900
H1255       H  0.48617581  0.85020223  0.87517639     0.14700
H1256       H  0.40115267  0.77386164  0.87347640     0.14500
C1257       C  0.18313299  0.66032869  0.60710920    -0.18400
C1258       C  0.19177228  0.65182124  0.62634474    -0.20600
C1259       C  0.18049437  0.61987794  0.63445849     0.20100
C1260       C  0.16101882  0.59588293  0.62295187    -0.03500
C1261       C  0.15245402  0.60437904  0.60348902    -0.06500
C1262       C  0.16316745  0.63698678  0.59565115     0.20400
C1263       C  0.13188565  0.58092508  0.59216827     0.18500
C1264       C  0.12099916  0.54880942  0.60022718    -0.18000
C1265       C  0.12964803  0.54032329  0.61948873    -0.20200
C1266       C  0.14919818  0.56387949  0.63105409     0.20000
C1267       C  0.15645221  0.55634738  0.65068263    -0.33300
C1268       C  0.17539680  0.58039854  0.66235075     0.00700
C1269       C  0.18772612  0.61189197  0.65399461    -0.24600
C1270       C  0.15197494  0.64652225  0.57691662    -0.29200
C1271       C  0.12985691  0.62411432  0.56606153     0.06400
C1272       C  0.12090828  0.59087648  0.57341998    -0.27800
H1273       H  0.19147769  0.68548328  0.60131582     0.11100
H1274       H  0.20677589  0.67050861  0.63498675     0.12200
H1275       H  0.10517890  0.53053662  0.59175360     0.11300
H1276       H  0.12046181  0.51559178  0.62545754     0.10600
H1277       H  0.14709480  0.53186064  0.65689365     0.15900
H1278       H  0.20231962  0.63065285  0.66280412     0.11900
H1279       H  0.15811757  0.67245476  0.57132469     0.14700
H1280       H  0.10312867  0.57405950  0.56516407     0.14500
C1281       C  0.02270740  0.81154774  0.60139070    -0.18400
C1282       C  0.01631265  0.82000442  0.62092511    -0.20600
C1283       C  0.49039327  0.80170932  0.63164701     0.20100
C1284       C  0.46976372  0.77554127  0.62240434    -0.03500
C1285       C  0.47592325  0.76727353  0.60263509    -0.06500
C1286       C  0.00314002  0.78481946  0.59224488     0.20400
C1287       C  0.45618107  0.74019553  0.59358471     0.18500
C1288       C  0.42976020  0.72241262  0.60419619    -0.18000
C1289       C  0.42366972  0.73061785  0.62379845    -0.20200
C1290       C  0.44388498  0.75675576  0.63308366     0.20000
C1291       C  0.43920425  0.76387168  0.65296273    -0.33300
C1292       C  0.46012081  0.78947512  0.66241022     0.00700
C1293       C  0.48535561  0.80858511  0.65154665    -0.24600
C1294       C  0.01203537  0.77358114  0.57340378    -0.29200
C1295       C  0.99426270  0.74495643  0.56497935     0.06400
C1296       C  0.46502950  0.72968011  0.57458316    -0.27800
H1297       H  0.04362862  0.82527232  0.59358678     0.11100
H1298       H  0.03225330  0.84027274  0.62778166     0.12200
H1299       H  0.41447548  0.70149931  0.59748839     0.11300
H1300       H  0.40361836  0.71603427  0.63180367     0.10600
H1301       H  0.41947201  0.74908890  0.66109554     0.15900
H1302       H  0.50148660  0.82849359  0.65860064     0.11900
H1303       H  0.03480038  0.78496415  0.56595516     0.14700
H1304       H  0.45181191  0.70722091  0.56807355     0.14500
C1305       C  0.09409870  0.80521825  0.92660911    -0.18400
C1306       C  0.10226136  0.81258283  0.90715784    -0.20600
C1307       C  0.13439496  0.80076271  0.89891878     0.20100
C1308       C  0.15890205  0.78191346  0.91046807    -0.03500
C1309       C  0.15089018  0.77488235  0.93017234    -0.06500
C1310       C  0.11806683  0.78615308  0.93816367     0.20400
C1311       C  0.17495815  0.75519732  0.94160098     0.18500
C1312       C  0.20707428  0.74337176  0.93334177    -0.18000
C1313       C  0.21498709  0.75031335  0.91379019    -0.20200
C1314       C  0.19092758  0.76924026  0.90219445     0.20000
C1315       C  0.19806152  0.77525244  0.88240513    -0.33300
C1316       C  0.17370044  0.79397842  0.87079036     0.00700
C1317       C  0.14210492  0.80693177  0.87923758    -0.24600
C1318       C  0.10877999  0.77614512  0.95713370    -0.29200
C1319       C  0.13165557  0.75468307  0.96803890     0.06400
C1320       C  0.16536978  0.74567208  0.96063565    -0.27800
H1321       H  0.06874402  0.81389958  0.93251706     0.11100
H1322       H  0.08315569  0.82702724  0.89846108     0.12200
H1323       H  0.22572559  0.72808658  0.94188691     0.11300
H1324       H  0.23971708  0.74045628  0.90766351     0.10600
H1325       H  0.22261721  0.76536362  0.87606997     0.15900
H1326       H  0.12308585  0.82123100  0.87040332     0.11900
H1327       H  0.08247432  0.78231512  0.96280222     0.14700
H1328       H  0.18247506  0.72834423  0.96896656     0.14500
C1329       C  0.52855628  0.54877149  0.92992904    -0.18400
C1330       C  0.51951230  0.54076380  0.91064723    -0.20600
C1331       C  0.49578438  0.56229853  0.90030460     0.20100
C1332       C  0.48018617  0.59157476  0.90964642    -0.03500
C1333       C  0.48914951  0.59955476  0.92910249    -0.06500
C1334       C  0.51391436  0.57836531  0.93919176     0.20400
C1335       C  0.47456027  0.62966634  0.93814210     0.18500
C1336       C  0.45038732  0.65083782  0.92793696    -0.18000
C1337       C  0.44138063  0.64281887  0.90870014    -0.20200
C1338       C  0.45649331  0.61356303  0.89936652     0.20000
C1339       C  0.44888844  0.60642581  0.87980006    -0.33300
C1340       C  0.46484930  0.57774398  0.87022773     0.00700
C1341       C  0.48798549  0.55554428  0.88067153    -0.24600
C1342       C  0.02506902  0.58837972  0.95790963    -0.29200
C1343       C  0.01208289  0.61946999  0.96637340     0.06400
C1344       C  0.48598454  0.63924949  0.95679435    -0.27800
H1345       H  0.54760389  0.53225788  0.93745087     0.11100
H1346       H  0.53162710  0.51811489  0.90369798     0.12200
H1347       H  0.43903131  0.67404310  0.93469671     0.11300
H1348       H  0.42309235  0.65988888  0.90099947     0.10600
H1349       H  0.43096854  0.62367032  0.87195378     0.15900
H1350       H  0.50024549  0.53318168  0.87350656     0.11900
H1351       H  0.04579948  0.57364179  0.96525974     0.14700
H1352       H  0.47662002  0.66354424  0.96331540     0.14500
C1353       C  0.37628147  0.58860338  0.62355706    -0.18400
C1354       C  0.36318143  0.57730057  0.60552589    -0.20600
C1355       C  0.37782147  0.54766293  0.59631008     0.20100
C1356       C  0.40696843  0.53011611  0.60494945    -0.03500
C1357       C  0.42024920  0.54160025  0.62311013    -0.06500
C1358       C  0.40423816  0.57044554  0.63265951     0.20400
C1359       C  0.44825962  0.52305679  0.63216809     0.18500
C1360       C  0.46379135  0.49420413  0.62263204    -0.18000
C1361       C  0.45053856  0.48271841  0.60468397    -0.20200
C1362       C  0.42166590  0.50001206  0.59594219     0.20000
C1363       C  0.40893485  0.98521808  0.57919838    -0.33300
C1364       C  0.38001923  0.00243925  0.57048395     0.00700
C1365       C  0.36710970  0.03397372  0.57847693    -0.24600
C1366       C  0.41489055  0.57921678  0.65163338    -0.29200
C1367       C  0.44080781  0.55902257  0.66136253     0.06400
C1368       C  0.45869136  0.53220472  0.65111087    -0.27800
H1369       H  0.36379684  0.61089713  0.63066421     0.11100
H1370       H  0.34090988  0.59113977  0.59905800     0.12200
H1371       H  0.98536714  0.47977478  0.62934868     0.11300
H1372       H  0.46223734  0.45970513  0.59790008     0.10600
H1373       H  0.41849783  0.96070092  0.57304088     0.15900
H1374       H  0.34445808  0.04687723  0.57178657     0.11900
H1375       H  0.40120782  0.60026136  0.65925114     0.14700
H1376       H  0.47899260  0.51670340  0.65832269     0.14500
C1377       C  0.27739911  0.80372024  0.60520068    -0.18400
C1378       C  0.26682485  0.79169391  0.62358123    -0.20600
C1379       C  0.23654114  0.80581753  0.63277768     0.20100
C1380       C  0.21589941  0.83130688  0.62303715    -0.03500
C1381       C  0.22651903  0.84341183  0.60448175    -0.06500
C1382       C  0.25785546  0.83005408  0.59572476     0.20400
C1383       C  0.20680246  0.87015238  0.59516051     0.18500
C1384       C  0.17600013  0.88357497  0.60412111    -0.18000
C1385       C  0.16546101  0.87152996  0.62249095    -0.20200
C1386       C  0.18559270  0.84591153  0.63220587     0.20000
C1387       C  0.17694131  0.83597662  0.65129746    -0.33300
C1388       C  0.19855441  0.81210166  0.66155382     0.00700
C1389       C  0.22757538  0.79617400  0.65189632    -0.24600
C1390       C  0.27013366  0.84467141  0.57820788    -0.29200
C1391       C  0.25156578  0.87249244  0.56948927     0.06400
C1392       C  0.21931666  0.88430579  0.57757965    -0.27800
H1393       H  0.30143786  0.79312804  0.59864250     0.11100
H1394       H  0.28289869  0.77202263  0.63083438     0.12200
H1395       H  0.16057266  0.90405865  0.59714791     0.11300
H1396       H  0.14207716  0.88294209  0.62932830     0.10600
H1397       H  0.15437269  0.84827111  0.65848624     0.15900
H1398       H  0.24441543  0.77767054  0.65957096     0.11900
H1399       H  0.29517747  0.83591120  0.57191933     0.14700
H1400       H  0.20535856  0.90605078  0.57083349     0.14500
C1401       C  0.20987050  0.44853079  0.11051047    -0.18400
C1402       C  0.20366313  0.45649264  0.13010104    -0.20600
C1403       C  0.21337435  0.48936987  0.13766950     0.20100
C1404       C  0.22866869  0.51486008  0.12531063    -0.03500
C1405       C  0.23469539  0.50692355  0.10548283    -0.06500
C1406       C  0.22577594  0.47336641  0.09818525     0.20400
C1407       C  0.25112617  0.53192809  0.09320465     0.18500
C1408       C  0.26007238  0.56508620  0.10071374    -0.16400
C1409       C  0.25393161  0.57301048  0.12038014    -0.20200
C1410       C  0.23880895  0.54788115  0.13287205     0.20000
C1411       C  0.23390038  0.55502269  0.15280298    -0.33300
C1412       C  0.21858721  0.52968682  0.16518119     0.00700
C1413       C  0.20833128  0.49700216  0.15743808    -0.24600
C1414       C  0.23500871  0.46442699  0.07905658    -0.29200
C1415       C  0.24306041  0.98382196  0.06624167     0.06400
C1416       C  0.25328583  0.01732464  0.07271411    -0.27800
H1417       H  0.20293638  0.42266471  0.10510079     0.11100
H1418       H  0.19179102  0.43670919  0.13941477     0.12200
H1419       H  0.27248109  0.07813010  0.08958998     0.11300
H1420       H  0.26161758  0.59858477  0.12590235     0.10600
H1421       H  0.24150529  0.58043582  0.15860073     0.15900
H1422       H  0.19657581  0.47728402  0.16685012     0.11900
H1423       H  0.21457511  0.93631725  0.07313453     0.14700
H1424       H  0.27034149  0.03338374  0.06357199     0.14500
C1425       C  0.12202648  0.52765889  0.41044165    -0.18400
C1426       C  0.10890464  0.53918157  0.42848267    -0.20600
C1427       C  0.12458453  0.56796300  0.43798438     0.20100
C1428       C  0.15493066  0.58413581  0.42968370    -0.03500
C1429       C  0.16804297  0.57261739  0.41142326    -0.06500
C1430       C  0.15092409  0.54484715  0.40154623     0.20400
C1431       C  0.19699597  0.59019548  0.40257922     0.18500
C1432       C  0.21394521  0.61768094  0.41258872    -0.18000
C1433       C  0.20106229  0.62901236  0.43069653    -0.20200
C1434       C  0.17096934  0.61310735  0.43907758     0.20000
C1435       C  0.15546905  0.62689455  0.45608071    -0.33300
C1436       C  0.12405048  0.61227435  0.46370987     0.00700
C1437       C  0.10943358  0.58203643  0.45506268    -0.24600
C1438       C  0.16152812  0.53619799  0.38248561    -0.29200
C1439       C  0.18843752  0.55555054  0.37291431     0.06400
C1440       C  0.20712414  0.58143723  0.38344902    -0.27800
H1441       H  0.10872510  0.50611327  0.40311316     0.11100
H1442       H  0.08578611  0.52627545  0.43470491     0.12200
H1443       H  0.23641520  0.63125105  0.40610073     0.11300
H1444       H  0.21386836  0.65106913  0.43781392     0.10600
H1445       H  0.16666111  0.65017166  0.46283403     0.15900
H1446       H  0.08517995  0.57081532  0.46102548     0.11900
H1447       H  0.14715076  0.51587068  0.37470349     0.14700
H1448       H  0.22818707  0.59626202  0.37641046     0.14500
C1449       C  0.43245749  0.96025421  0.42618919    -0.18400
C1450       C  0.43863035  0.96696390  0.40645058    -0.20600
C1451       C  0.42864594  0.50108646  0.39934807     0.20100
C1452       C  0.40926781  0.52575264  0.41053024    -0.03500
C1453       C  0.40188917  0.51889405  0.43035582    -0.06500
C1454       C  0.41379832  0.98459426  0.43771677     0.20400
C1455       C  0.38105518  0.54274873  0.44134026     0.18500
C1456       C  0.36939976  0.57405993  0.43265891    -0.18000
C1457       C  0.37687076  0.58093020  0.41302291    -0.20200
C1458       C  0.39605716  0.55656724  0.40172566     0.20000
C1459       C  0.40154031  0.56205478  0.38170216    -0.33300
C1460       C  0.42021789  0.53719227  0.37035349     0.00700
C1461       C  0.43412828  0.50704568  0.37941093    -0.24600
C1462       C  0.40468867  0.97659440  0.45699987    -0.29200
C1463       C  0.38299768  0.99945625  0.46787016     0.06400
C1464       C  0.37011055  0.53362956  0.46027858    -0.27800
H1465       H  0.44162724  0.93567549  0.43234426     0.11100
H1466       H  0.95269066  0.94754454  0.39777713     0.12200
H1467       H  0.35353371  0.59273125  0.44088269     0.11300
H1468       H  0.36681591  0.60488519  0.40653689     0.10600
H1469       H  0.39110891  0.58563580  0.37496591     0.15900
H1470       H  0.44868755  0.48778068  0.37087962     0.11900
H1471       H  0.41137245  0.95105488  0.46294473     0.14700
H1472       H  0.35176441  0.55045322  0.46820318     0.14500
C1473       C  0.22485917  0.74167241  0.12401475    -0.18400
C1474       C  0.21433545  0.72944418  0.10564589    -0.20600
C1475       C  0.18494187  0.74445754  0.09613939     0.20100
C1476       C  0.16695888  0.77309640  0.10485132    -0.03500
C1477       C  0.17775089  0.78558622  0.12330844    -0.06500
C1478       C  0.20625336  0.76921607  0.13314000     0.20400
C1479       C  0.15885861  0.81329914  0.13232048     0.18500
C1480       C  0.13032967  0.82919880  0.12250487    -0.18000
C1481       C  0.11943050  0.81663638  0.10431450    -0.20200
C1482       C  0.13705228  0.78814530  0.09558533     0.20000
C1483       C  0.12421155  0.77334840  0.07825882    -0.33300
C1484       C  0.14091300  0.74382675  0.07006848     0.00700
C1485       C  0.17205064  0.73027700  0.07860112    -0.24600
C1486       C  0.21433777  0.77935697  0.15231374    -0.29200
C1487       C  0.19396253  0.80535028  0.16190113     0.06400
C1488       C  0.16739896  0.82329942  0.15142131    -0.27800
H1489       H  0.24693447  0.72892449  0.13132086     0.11100
H1490       H  0.22851115  0.70753571  0.09914651     0.12200
H1491       H  0.11566495  0.85060854  0.12918976     0.11300
H1492       H  0.09658928  0.82860315  0.09731343     0.10600
H1493       H  0.10020759  0.78367265  0.07158744     0.15900
H1494       H  0.18478874  0.70741118  0.07220665     0.11900
H1495       H  0.23515957  0.76553324  0.16010661     0.14700
H1496       H  0.15170825  0.84356102  0.15851345     0.14500
C1497       C  0.44334228  0.64595122  0.10571839    -0.18400
C1498       C  0.43071098  0.63553525  0.12402092    -0.20600
C1499       C  0.44292198  0.60429742  0.13256906     0.20100
C1500       C  0.46679078  0.58250962  0.12218179    -0.03500
C1501       C  0.47943475  0.59293591  0.10366260    -0.06500
C1502       C  0.46831383  0.62525447  0.09564592     0.20400
C1503       C  0.00462882  0.57192083  0.09366137     0.18500
C1504       C  0.01563870  0.53998079  0.10185506    -0.18000
C1505       C  0.00314096  0.52969720  0.12021656    -0.20200
C1506       C  0.47941012  0.55117674  0.13069103     0.20000
C1507       C  0.46954450  0.54275801  0.14988165    -0.33300
C1508       C  0.44741976  0.56538806  0.16078083     0.00700
C1509       C  0.43311106  0.59541757  0.15168847    -0.24600
C1510       C  0.48380628  0.63715585  0.07824671    -0.29200
C1511       C  0.01030105  0.61723008  0.06886532     0.06400
C1512       C  0.01974206  0.58412999  0.07619334    -0.27800
H1513       H  0.43438023  0.67071769  0.09970417     0.11100
H1514       H  0.41223091  0.65247634  0.13175684     0.12200
H1515       H  0.03477494  0.52345221  0.09432890     0.11300
H1516       H  0.01288499  0.50542596  0.12647720     0.10600
H1517       H  0.48045049  0.51937878  0.15660814     0.15900
H1518       H  0.41590666  0.61305228  0.15982329     0.11900
H1519       H  0.47674312  0.66274739  0.07251181     0.14700
H1520       H  0.04035550  0.56899582  0.06891092     0.14500
C1521       C  0.18158028  0.89618770  0.42943493    -0.18400
C1522       C  0.17425442  0.88770448  0.40999300    -0.20600
C1523       C  0.19511116  0.86278017  0.40004373     0.20100
C1524       C  0.22302039  0.84554741  0.40993165    -0.03500
C1525       C  0.23046144  0.85413676  0.42954128    -0.06500
C1526       C  0.20994616  0.87996254  0.43924326     0.20400
C1527       C  0.25943587  0.83802633  0.43913646     0.18500
C1528       C  0.27969254  0.81246522  0.42935523    -0.18000
C1529       C  0.27204521  0.80366953  0.41000943    -0.20200
C1530       C  0.24415372  0.82044622  0.40008002     0.20000
C1531       C  0.23741342  0.81290852  0.38040209    -0.33300
C1532       C  0.20993217  0.83027143  0.37031107     0.00700
C1533       C  0.18881803  0.85511793  0.38032863    -0.24600
C1534       C  0.21960751  0.89066165  0.45810341    -0.29200
C1535       C  0.25007973  0.87655484  0.46704521     0.06400
C1536       C  0.26899565  0.84931925  0.45787396    -0.27800
H1537       H  0.16560732  0.91608583  0.43664742     0.11100
H1538       H  0.15260852  0.90106176  0.40263956     0.12200
H1539       H  0.30197513  0.79982520  0.43652898     0.11300
H1540       H  0.28843330  0.78423618  0.40268432     0.10600
H1541       H  0.25383590  0.79368062  0.37292792     0.15900
H1542       H  0.16741492  0.86857873  0.37281702     0.11900
H1543       H  0.20549329  0.91211099  0.46512262     0.14700
H1544       H  0.29275727  0.83888142  0.46474574     0.14500
C1545       C  0.44901077  0.88802747  0.10137478    -0.18400
C1546       C  0.45762672  0.87961078  0.12064853    -0.20600
C1547       C  0.43915074  0.85288219  0.13049849     0.20100
C1548       C  0.41268979  0.83353946  0.12060100    -0.03500
C1549       C  0.40408164  0.84192450  0.10112788    -0.06500
C1550       C  0.42183929  0.86979505  0.09161567     0.20400
C1551       C  0.37635197  0.82369487  0.09157090     0.18500
C1552       C  0.35871520  0.79622688  0.10118979    -0.18000
C1553       C  0.36739458  0.78780456  0.12043393    -0.20200
C1554       C  0.39379179  0.80677359  0.13039615     0.20000
C1555       C  0.40081590  0.80012613  0.15013658    -0.33300
C1556       C  0.42636792  0.82001496  0.16033636     0.00700
C1557       C  0.44591129  0.84590700  0.15023055    -0.24600
C1558       C  0.41042220  0.88043489  0.07307002    -0.29200
C1559       C  0.38094307  0.86410725  0.06427408     0.06400
C1560       C  0.36508231  0.83483991  0.07312789    -0.27800
H1561       H  0.46291422  0.90946039  0.09429195     0.11100
H1562       H  0.47814798  0.89461002  0.12801318     0.12200
H1563       H  0.33745408  0.78193090  0.09402616     0.11300
H1564       H  0.35278503  0.76703837  0.12769821     0.10600
H1565       H  0.38577659  0.77992786  0.15763714     0.15900
H1566       H  0.46591110  0.86126428  0.15779844     0.11900
H1567       H  0.42219470  0.90336384  0.06626079     0.14700
H1568       H  0.34209862  0.82264804  0.06633890     0.14500
C1569       C  0.02378432  0.81178771  0.42686284    -0.18400
C1570       C  0.01238194  0.82503841  0.40894770    -0.20600
C1571       C  0.48050052  0.81308781  0.40056168     0.20100
C1572       C  0.45892013  0.78894238  0.41077389    -0.03500
C1573       C  0.47031013  0.77571254  0.42891516    -0.06500
C1574       C  0.00338276  0.78651959  0.43670084     0.20400
C1575       C  0.44957126  0.75026588  0.43872188     0.18500
C1576       C  0.41687038  0.73959177  0.43075776    -0.18000
C1577       C  0.40568024  0.75259006  0.41271080    -0.20200
C1578       C  0.42698876  0.77651924  0.40237173     0.20000
C1579       C  0.41808741  0.78653809  0.38331600    -0.33300
C1580       C  0.44088139  0.80857079  0.37249935     0.00700
C1581       C  0.47104394  0.82315742  0.38163990    -0.24600
C1582       C  0.01627753  0.77059875  0.45365600    -0.29200
C1583       C  0.99658933  0.74403893  0.46282675     0.06400
C1584       C  0.46279608  0.73471293  0.45576338    -0.27800
H1585       H  0.04908981  0.82051878  0.43273646     0.11100
H1586       H  0.02914783  0.84370951  0.40132232     0.12200
H1587       H  0.40052091  0.72029563  0.43816796     0.11300
H1588       H  0.38093444  0.74301731  0.40653860     0.10600
H1589       H  0.39450756  0.77552084  0.37653665     0.15900
H1590       H  0.48870697  0.84037738  0.37356946     0.11900
H1591       H  0.04233477  0.77763954  0.45927759     0.14700
H1592       H  0.44780646  0.71412746  0.46297912     0.14500
C1593       C  0.93647997  0.31204092  0.35032000     0.79700
N1594       N  0.95779954  0.33405657  0.33994730    -0.78600
C1595       C  0.95786820  0.33322260  0.32019655     0.82100
N1596       N  0.93688641  0.30991225  0.31068271    -0.78600
C1597       C  0.91462326  0.28858447  0.32079043     0.82200
N1598       N  0.91460239  0.28947642  0.34060339    -0.80300
C1599       C  0.93337287  0.31596754  0.18176408     0.79700
N1600       N  0.91403962  0.29083519  0.19125885    -0.78600
C1601       C  0.91922535  0.28507097  0.21066001     0.82100
N1602       N  0.94367557  0.30445591  0.22047076    -0.78600
C1603       C  0.46227680  0.33000752  0.21122215     0.82200
N1604       N  0.95710501  0.33562167  0.19197800    -0.80300
C1605       C  0.70191680  0.31932879  0.34991491     0.79700
N1606       N  0.72106728  0.29432380  0.34023719    -0.78600
C1607       C  0.71397386  0.28704194  0.32120161     0.82100
N1608       N  0.68780226  0.30480448  0.31183896    -0.78600
C1609       C  0.66916907  0.33021379  0.32122922     0.82200
N1610       N  0.67623244  0.33736730  0.34018826    -0.80300
C1611       C  0.94349225  0.06035856  0.18117915     0.79700
N1612       N  0.92132775  0.08214672  0.19129832    -0.78600
C1613       C  0.92067839  0.08148162  0.21108367     0.82100
N1614       N  0.94253791  0.05933647  0.22081558    -0.78600
C1615       C  0.96387462  0.03675208  0.21092181     0.82200
N1616       N  0.96450198  0.03742093  0.19114106    -0.80300
N1617       N  0.52459629  0.49707320  0.28943547    -0.06700
N1618       N  0.49854542  0.02090632  0.29224606    -0.58800
N1619       N  0.60636233  0.47258360  0.30348267    -0.06400
N1620       N  0.62950944  0.48069945  0.31728151    -0.60900
N1621       N  0.60734253  0.49604751  0.28942748    -0.06000
N1622       N  0.63074303  0.02084085  0.29258567    -0.58800
N1623       N  0.52456243  0.47318949  0.30325791    -0.05600
N1624       N  0.50011632  0.48057022  0.31654637    -0.61300
C1625       C  0.48341567  0.01003883  0.30907348     0.95500
C1626       C  0.64540748  0.51012703  0.31046474     0.95300
N1627       N  0.60567889  0.36588887  0.28928103    -0.06900
N1628       N  0.62858006  0.34063668  0.29332896    -0.59400
N1629       N  0.52381467  0.39073687  0.30283992    -0.05000
N1630       N  0.49986930  0.38314036  0.31632163    -0.60600
N1631       N  0.52329063  0.36716428  0.28879063    -0.06900
N1632       N  0.49846527  0.34339956  0.29223371    -0.59600
N1633       N  0.60524361  0.38950803  0.30331213    -0.04600
N1634       N  0.62753301  0.38056249  0.31732556    -0.60700
Mn1635     Mn  0.56504323  0.43151181  0.30381493     1.18400
C1636       C  0.64202888  0.35023720  0.31078185     0.97600
C1637       C  0.98399775  0.35388397  0.30934876     0.98200
N1638       N  0.60739944  0.49660154  0.24386818    -0.06900
N1639       N  0.63310786  0.51966100  0.24091270    -0.63200
N1640       N  0.52537591  0.47406537  0.22953400    -0.05700
N1641       N  0.50343292  0.48381728  0.21546253    -0.63900
N1642       N  0.52482935  0.49717879  0.24384233    -0.06400
N1643       N  0.50142111  0.02305262  0.23945809    -0.63500
N1644       N  0.60708825  0.47295491  0.22986333    -0.05300
N1645       N  0.63236544  0.47962027  0.21695748    -0.64200
Mn1646     Mn  0.56604881  0.49779858  0.26664468     1.10700
C1647       C  0.64847227  0.50864298  0.22415262     0.98800
C1648       C  0.48871175  0.51382315  0.22238769     0.98900
N1649       N  0.52454434  0.36688258  0.24337166    -0.06400
N1650       N  0.50161133  0.34167111  0.23936641    -0.61800
N1651       N  0.60650411  0.39017535  0.22940222    -0.05700
N1652       N  0.63013415  0.38211810  0.21576918    -0.58500
N1653       N  0.60700138  0.36670085  0.24346640    -0.07100
N1654       N  0.63143758  0.34257079  0.23986063    -0.61400
N1655       N  0.52495003  0.39049674  0.22938286    -0.06000
N1656       N  0.50267726  0.38139909  0.21535977    -0.58600
Mn1657     Mn  0.56519329  0.36561543  0.26621367     1.20200
Mn1658     Mn  0.56590092  0.43194769  0.22891705     1.10100
Cl1659     Cl  0.56556944  0.43170801  0.26638688    -0.86500
C1660       C  0.98814844  0.35112695  0.22195579     0.95800
C1661       C  0.64571289  0.35260653  0.22263169     0.95600
C1662       C  0.69843885  0.31233903  0.18258106     0.79700
N1663       N  0.67528813  0.33363454  0.19239983    -0.78600
C1664       C  0.67286370  0.33216612  0.21216026     0.82100
N1665       N  0.69324821  0.30895391  0.22213315    -0.78600
C1666       C  0.71708185  0.28838949  0.21257952     0.82200
N1667       N  0.71948727  0.29000038  0.19286788    -0.80300
C1668       C  0.92368333  0.04157358  0.34824173     0.79700
N1669       N  0.94833569  0.02242993  0.33828950    -0.78600
C1670       C  0.45541577  0.02941976  0.31930641     0.82100
N1671       N  0.93779644  0.05570574  0.31014688    -0.78600
C1672       C  0.91259433  0.07449074  0.31980365     0.82200
N1673       N  0.90567154  0.06751754  0.33885408    -0.80300
C1674       C  0.69303349  0.05291665  0.35054442     0.79700
N1675       N  0.71451701  0.07565544  0.34065267    -0.78600
C1676       C  0.71407102  0.07667733  0.32084132     0.82100
N1677       N  0.69167376  0.05521838  0.31088562    -0.78600
C1678       C  0.67100514  0.03170678  0.32053324     0.82200
N1679       N  0.67159643  0.03077589  0.34029731    -0.80300
C1680       C  0.70633740  0.04042150  0.18441188     0.79700
N1681       N  0.68115957  0.02236270  0.19445556    -0.78600
C1682       C  0.67381828  0.03017491  0.21324531     0.82100
N1683       N  0.69185032  0.05640094  0.22226646    -0.78600
C1684       C  0.71765746  0.07436289  0.21256424     0.82200
N1685       N  0.72482422  0.06647307  0.19356316    -0.80300
N1686       N  0.88072708  0.22368116  0.28938955    -0.06700
N1687       N  0.90485201  0.24801514  0.29304692    -0.58800
N1688       N  0.85694387  0.14256919  0.30334722    -0.06400
N1689       N  0.86386518  0.11839891  0.31657921    -0.60900
N1690       N  0.88138299  0.14231279  0.28954315    -0.06000
N1691       N  0.90519011  0.11754217  0.29295178    -0.58800
N1692       N  0.85674929  0.22280415  0.30344207    -0.05600
N1693       N  0.86447120  0.24606762  0.31711953    -0.61300
C1694       C  0.89426956  0.26181185  0.31028196     0.95500
C1695       C  0.89385747  0.10290412  0.30980534     0.95300
N1696       N  0.74921149  0.14098970  0.28925777    -0.06900
N1697       N  0.72477524  0.11687518  0.29288876    -0.59400
N1698       N  0.77280584  0.22232817  0.30338786    -0.05000
N1699       N  0.76465007  0.24531639  0.31713614    -0.60600
N1700       N  0.74860274  0.22248565  0.28952720    -0.06900
N1701       N  0.72367051  0.24597403  0.29345319    -0.59600
N1702       N  0.77284908  0.14193819  0.30340912    -0.04600
N1703       N  0.76455623  0.11899787  0.31713858    -0.60700
Mn1704     Mn  0.81485621  0.18240580  0.30394287     1.18400
C1705       C  0.73478006  0.10329395  0.31024372     0.97600
C1706       C  0.73410485  0.25998953  0.31065840     0.98200
N1707       N  0.88226762  0.14189715  0.24375566    -0.06900
N1708       N  0.90796305  0.11934682  0.23968270    -0.63200
N1709       N  0.85842881  0.22254427  0.22933195    -0.05700
N1710       N  0.86763255  0.24407198  0.21506118    -0.63900
N1711       N  0.88242096  0.22318735  0.24331784    -0.06400
N1712       N  0.90812211  0.24558080  0.23894354    -0.63500
N1713       N  0.85863045  0.14243457  0.22959296    -0.05300
N1714       N  0.86821731  0.12089549  0.21539849    -0.64200
Mn1715     Mn  0.88280278  0.18281737  0.26654380     1.10700
C1716       C  0.89873685  0.10641099  0.22205106     0.98800
C1717       C  0.89852290  0.25844369  0.22134177     0.98900
N1718       N  0.74996951  0.22276591  0.24367965    -0.06400
N1719       N  0.72607281  0.24743371  0.24022666    -0.61800
N1720       N  0.77436570  0.14177680  0.22951879    -0.05700
N1721       N  0.76709122  0.11797562  0.21603977    -0.58500
N1722       N  0.74996120  0.14135872  0.24335107    -0.07100
N1723       N  0.72587999  0.11694806  0.23969351    -0.61400
N1724       N  0.77419366  0.22221173  0.22975151    -0.06000
N1725       N  0.76693930  0.24601225  0.21637415    -0.58600
Mn1726     Mn  0.74824543  0.18189463  0.26642703     1.20200
Mn1727     Mn  0.81631890  0.18223301  0.22902740     1.10100
Cl1728     Cl  0.81555703  0.18236655  0.26647937    -0.86500
C1729       C  0.73715604  0.26175339  0.22324353     0.95800
C1730       C  0.73691190  0.10259300  0.22267025     0.95600
N1731       N  0.81186047  0.43841952  0.54904413    -0.37200
N1732       N  0.77098514  0.40162770  0.51890113    -0.57700
N1733       N  0.81162620  0.43993149  0.48943440    -0.37200
N1734       N  0.84918774  0.48005949  0.51941590    -0.57700
C1735       C  0.78739659  0.42150268  0.56015147     0.26400
C1736       C  0.82787735  0.46286460  0.56042129     0.26400
C1737       C  0.78745881  0.42349808  0.47796626     0.26400
C1738       C  0.82889181  0.46378534  0.47827140     0.26400
C1739       C  0.75929965  0.38347694  0.53456405     0.35000
C1740       C  0.75889836  0.38454509  0.50293919     0.35000
C1741       C  0.86679214  0.49168025  0.53532735     0.35000
C1742       C  0.86744637  0.49176036  0.50370252     0.35000
C1743       C  0.78826673  0.43509689  0.57893002    -0.22500
C1744       C  0.81367729  0.46108315  0.57909854    -0.22500
C1745       C  0.78968615  0.43700459  0.45920851    -0.22500
C1746       C  0.81562655  0.46232679  0.45941638    -0.22500
C1747       C  0.73901770  0.35502802  0.52853438    -0.23500
C1748       C  0.73873802  0.35573289  0.50848064    -0.23500
C1749       C  0.89599610  0.51161859  0.52969050    -0.23500
C1750       C  0.89645075  0.51158569  0.50962990    -0.23500
C1751       C  0.76542950  0.39302726  0.55421623    -0.18900
C1752       C  0.85622966  0.48552264  0.55484293    -0.18900
C1753       C  0.85781294  0.48541318  0.48410046    -0.18900
C1754       C  0.76489415  0.39521850  0.48346759    -0.18900
H1755       H  0.77245225  0.42701162  0.59135021     0.14100
H1756       H  0.82103326  0.47662153  0.59168384     0.14100
H1757       H  0.77466866  0.42917984  0.44647900     0.14100
H1758       H  0.82404522  0.47757718  0.44693048     0.14100
H1759       H  0.72566331  0.33588299  0.53762640     0.12300
H1760       H  0.72519659  0.33721954  0.49906925     0.12300
H1761       H  0.92179742  0.01976720  0.53880494     0.12300
H1762       H  0.92258214  0.01945684  0.50017620     0.12300
H1763       H  0.81866738  0.43224944  0.53485207     0.25600
H1764       H  0.81759067  0.43372126  0.50368551     0.25600
N1765       N  0.57601395  0.18034200  0.04758665    -0.37200
N1766       N  0.53962950  0.13990787  0.01706963    -0.57700
N1767       N  0.57311360  0.18528120  0.98840651    -0.37200
N1768       N  0.61302500  0.22251851  0.01865725    -0.57700
C1769       C  0.56095182  0.15430847  0.05818771     0.26400
C1770       C  0.60063733  0.19637614  0.05899225     0.26400
C1771       C  0.55928672  0.15998778  0.97678991     0.26400
C1772       C  0.59696014  0.20339982  0.97759164     0.26400
C1773       C  0.52175973  0.12750627  0.03268578     0.35000
C1774       C  0.52144864  0.12916404  0.00117353     0.35000
C1775       C  0.62430085  0.23954347  0.03478170     0.35000
C1776       C  0.62193773  0.24278788  0.00328161     0.35000
C1777       C  0.57596661  0.15396550  0.07664763    -0.22500
C1778       C  0.60092764  0.18037450  0.07715323    -0.22500
C1779       C  0.57431371  0.16229644  0.95834219    -0.22500
C1780       C  0.59802740  0.18959078  0.95884058    -0.22500
C1781       C  0.99240534  0.10814269  0.02666929    -0.23500
C1782       C  0.99227002  0.10914515  0.00662707    -0.23500
C1783       C  0.64111934  0.27060957  0.02958645    -0.23500
C1784       C  0.63951132  0.27270503  0.00957676    -0.23500
C1785       C  0.53229348  0.13245267  0.05223537    -0.18900
C1786       C  0.62113740  0.22646046  0.05398445    -0.18900
C1787       C  0.61617639  0.23348756  0.98363838    -0.18900
C1788       C  0.53162956  0.13645565  0.98183514    -0.18900
H1789       H  0.56931237  0.13680002  0.08867044     0.14100
H1790       H  0.61691451  0.18731326  0.08968627     0.14100
H1791       H  0.56851396  0.14629891  0.94568672     0.14100
H1792       H  0.61391678  0.19844801  0.94661548     0.14100
H1793       H  0.97322811  0.09459262  0.03576260     0.12300
H1794       H  0.97297916  0.09663565  0.99717336     0.12300
H1795       H  0.65347851  0.28962994  0.03917047     0.12300
H1796       H  0.65040780  0.29356641  0.00067538     0.12300
H1797       H  0.56810929  0.18810318  0.03383690     0.25600
H1798       H  0.56496397  0.19147361  0.00241700     0.25600
N1799       N  0.55956624  0.17922827  0.48425115    -0.37200
N1800       N  0.59869748  0.14057808  0.51406767    -0.57700
N1801       N  0.56139915  0.18195120  0.54368048    -0.37200
N1802       N  0.51878722  0.21716649  0.51399291    -0.57700
C1803       C  0.57427416  0.15333574  0.47330974     0.26400
C1804       C  0.53455864  0.19530242  0.47323541     0.26400
C1805       C  0.58020799  0.15976999  0.55509362     0.26400
C1806       C  0.53668311  0.19783533  0.55508470     0.26400
C1807       C  0.61575847  0.12813105  0.49812496     0.35000
C1808       C  0.61859721  0.13143067  0.52964654     0.35000
C1809       C  0.50764057  0.23516478  0.49821200     0.35000
C1810       C  0.50652223  0.23466452  0.52977853     0.35000
C1811       C  0.55850467  0.15325949  0.45501372    -0.22500
C1812       C  0.53358635  0.17969796  0.45496430    -0.22500
C1813       C  0.56755544  0.16191942  0.57408739    -0.22500
C1814       C  0.54026129  0.18581476  0.57409419    -0.22500
C1815       C  0.64636588  0.11030098  0.50363449    -0.23500
C1816       C  0.64821540  0.11249649  0.52363361    -0.23500
C1817       C  0.98757022  0.26398695  0.50396569    -0.23500
C1818       C  0.98667910  0.26354517  0.52401488    -0.23500
C1819       C  0.60331674  0.13155011  0.47876776    -0.18900
C1820       C  0.51393345  0.22492582  0.47871476    -0.18900
C1821       C  0.51244243  0.22448918  0.54928631    -0.18900
C1822       C  0.60959722  0.13874289  0.54924564    -0.18900
H1823       H  0.56466246  0.13641680  0.44274715     0.14100
H1824       H  0.51688090  0.18680041  0.44274492     0.14100
H1825       H  0.57712634  0.14795954  0.58676841     0.14100
H1826       H  0.52527183  0.19372644  0.58685702     0.14100
H1827       H  0.66533818  0.09704997  0.49424998     0.12300
H1828       H  0.66884612  0.10127627  0.53271063     0.12300
H1829       H  0.97465140  0.28309821  0.49469451     0.12300
H1830       H  0.97316935  0.28239663  0.53327339     0.12300
H1831       H  0.56780186  0.18721864  0.49795072     0.25600
H1832       H  0.56653774  0.18732247  0.52919086     0.25600
N1833       N  0.81736135  0.43181461  0.98464705    -0.37200
N1834       N  0.77975848  0.46974038  0.01525286    -0.57700
N1835       N  0.82226721  0.43133820  0.04395444    -0.37200
N1836       N  0.86307123  0.39693714  0.01352213    -0.57700
C1837       C  0.79923986  0.45559309  0.97383390     0.26400
C1838       C  0.84195296  0.41655614  0.97292294     0.26400
C1839       C  0.80566378  0.45536203  0.05531499     0.26400
C1840       C  0.84953617  0.41783689  0.05445911     0.26400
C1841       C  0.75992624  0.48030964  0.99995710     0.35000
C1842       C  0.76168496  0.47907329  0.03148309     0.35000
C1843       C  0.87400767  0.37950995  0.99746289     0.35000
C1844       C  0.87695572  0.37976855  0.02895362     0.35000
C1845       C  0.81221843  0.45490494  0.95485582    -0.22500
C1846       C  0.83906931  0.43038839  0.95429614    -0.22500
C1847       C  0.82241782  0.45699520  0.07329642    -0.22500
C1848       C  0.84985790  0.43330005  0.07280817    -0.22500
C1849       C  0.72866715  0.00227568  0.00540403    -0.23500
C1850       C  0.72661101  0.99868731  0.02531305    -0.23500
C1851       C  0.89561135  0.35148177  0.00267894    -0.23500
C1852       C  0.89750422  0.35168078  0.02268877    -0.23500
C1853       C  0.77019419  0.47671295  0.98024362    -0.18900
C1854       C  0.86586541  0.38928520  0.97814814    -0.18900
C1855       C  0.87255036  0.39024574  0.04853090    -0.18900
C1856       C  0.77420692  0.47406672  0.05062418    -0.18900
H1857       H  0.80309447  0.47009433  0.94252411     0.14100
H1858       H  0.85456892  0.42340379  0.94153112     0.14100
H1859       H  0.81526769  0.47315252  0.08569963     0.14100
H1860       H  0.86750059  0.42792306  0.08486989     0.14100
H1861       H  0.71145618  0.01851054  0.99654118     0.12300
H1862       H  0.70777463  0.01184543  0.03482309     0.12300
H1863       H  0.90874547  0.33292993  0.99307690     0.12300
H1864       H  0.91242294  0.33341647  0.03157957     0.12300
H1865       H  0.81210900  0.42493170  0.99895185     0.25600
H1866       H  0.81371845  0.42283107  0.03038962     0.25600
C1867       C  0.94784891  0.30556700  0.84992939     0.79700
N1868       N  0.92642534  0.28357355  0.83964703    -0.78600
C1869       C  0.92582345  0.28454794  0.81994688     0.82100
N1870       N  0.94656539  0.30797610  0.81033290    -0.78600
C1871       C  0.96907125  0.32922521  0.82036379     0.82200
N1872       N  0.96947219  0.32825472  0.84016726    -0.80300
C1873       C  0.95921073  0.07330479  0.84796590     0.79700
N1874       N  0.97722718  0.04778814  0.83821588    -0.78600
C1875       C  0.96972618  0.04081998  0.81928659     0.82100
N1876       N  0.94401584  0.05933578  0.80999788    -0.78600
C1877       C  0.92636479  0.08534383  0.81949551     0.82200
N1878       N  0.93397074  0.09227371  0.83843647    -0.80300
C1879       C  0.69252757  0.06153827  0.85111147     0.79700
N1880       N  0.67061338  0.03940591  0.84108822    -0.78600
C1881       C  0.67169814  0.03835792  0.82126990     0.82100
N1882       N  0.69495671  0.05914417  0.81148987    -0.78600
C1883       C  0.71606117  0.08198768  0.82126737     0.82200
N1884       N  0.71495737  0.08298853  0.84101582    -0.80300
C1885       C  0.68003744  0.29792368  0.84934190     0.79700
N1886       N  0.66171573  0.32289304  0.83938276    -0.78600
C1887       C  0.66889676  0.32905102  0.82031898     0.82100
N1888       N  0.69440548  0.31003774  0.81108900    -0.78600
C1889       C  0.71230007  0.28447959  0.82074724     0.82200
N1890       N  0.70524042  0.27854302  0.83989084    -0.80300
C1891       C  0.68118409  0.07345027  0.68263677     0.79700
N1892       N  0.70622968  0.09225436  0.69247496    -0.78600
C1893       C  0.71308480  0.08546461  0.71150280     0.82100
N1894       N  0.69473027  0.05977437  0.72081307    -0.78600
C1895       C  0.66912937  0.04132783  0.71131096     0.82200
N1896       N  0.66245615  0.04811814  0.69221152    -0.80300
C1897       C  0.94908990  0.06456767  0.68209942     0.79700
N1898       N  0.97014320  0.04170416  0.69205104    -0.78600
C1899       C  0.96849500  0.03989776  0.71177437     0.82100
N1900       N  0.94535389  0.06077467  0.72164793    -0.78600
C1901       C  0.92515178  0.08454234  0.71194220     0.82200
N1902       N  0.92686626  0.08620801  0.69221457    -0.80300
N1903       N  0.86021291  0.11968931  0.78880640    -0.06700
N1904       N  0.88427702  0.09524357  0.79228290    -0.58800
N1905       N  0.77867637  0.14279141  0.80318221    -0.06400
N1906       N  0.75668604  0.13334886  0.81731649    -0.60900
N1907       N  0.77791390  0.11964303  0.78889882    -0.06000
N1908       N  0.75492322  0.09441433  0.79285259    -0.58800
N1909       N  0.86014852  0.14337814  0.80279829    -0.05600
N1910       N  0.88385933  0.13523277  0.81626225    -0.61300
C1911       C  0.89881124  0.10534679  0.80937548     0.95500
C1912       C  0.74179321  0.10342055  0.81050861     0.95300
N1913       N  0.77765433  0.24967692  0.78942955    -0.06900
N1914       N  0.75376221  0.27417370  0.79321781    -0.59400
N1915       N  0.85984952  0.22640325  0.80310091    -0.05000
N1916       N  0.88392316  0.23427827  0.81643898    -0.60600
N1917       N  0.86007780  0.24998803  0.78911335    -0.06900
N1918       N  0.88474648  0.27395417  0.79239193    -0.59600
N1919       N  0.77808930  0.22603725  0.80340094    -0.04600
N1920       N  0.75474550  0.23428209  0.81714617    -0.60700
Mn1921     Mn  0.81918506  0.18466866  0.80376117     1.18400
C1922       C  0.73966424  0.26420227  0.81045709     0.97600
C1923       C  0.89951457  0.26367055  0.80936789     0.98200
N1924       N  0.77822909  0.11981512  0.74310966    -0.06900
N1925       N  0.75445559  0.09525358  0.73920610    -0.63200
N1926       N  0.86043857  0.14376411  0.72947743    -0.05700
N1927       N  0.88378791  0.13536822  0.71577799    -0.63900
N1928       N  0.86062373  0.12011123  0.74343502    -0.06400
N1929       N  0.88453772  0.09556872  0.73975521    -0.63500
N1930       N  0.77877904  0.14353602  0.72918293    -0.05300
N1931       N  0.75565512  0.13535299  0.71539062    -0.64200
Mn1932     Mn  0.81916099  0.11883545  0.76605926     1.10700
C1933       C  0.74052568  0.10536120  0.72196283     0.98800
C1934       C  0.89887093  0.10554061  0.72257601     0.98900
N1935       N  0.85991448  0.25057923  0.74387392    -0.06400
N1936       N  0.88374359  0.27524596  0.74030477    -0.61800
N1937       N  0.77854944  0.22651206  0.72959546    -0.05700
N1938       N  0.75547461  0.23478256  0.71582705    -0.58500
N1939       N  0.77756949  0.24983072  0.74377723    -0.07100
N1940       N  0.75336536  0.27407871  0.74012767    -0.61400
N1941       N  0.86004296  0.22681874  0.72992469    -0.06000
N1942       N  0.88358862  0.23513648  0.71638142    -0.58600
Mn1943     Mn  0.81872167  0.25106884  0.76656537     1.20200
Mn1944     Mn  0.81948824  0.18518669  0.72893035     1.10100
Cl1945     Cl  0.81906407  0.18493587  0.76633143    -0.86500
C1946       C  0.89830681  0.26513418  0.72318584     0.95800
C1947       C  0.73971727  0.26420876  0.72275534     0.95600
C1948       C  0.95524061  0.29781493  0.68331646     0.79700
N1949       N  0.93075166  0.27905581  0.69349696    -0.78600
C1950       C  0.92521178  0.28528570  0.71267214     0.82100
N1951       N  0.94422724  0.31056342  0.72187340    -0.78600
C1952       C  0.96939248  0.32900687  0.71200740     0.82200
N1953       N  0.97489458  0.32267758  0.69271454    -0.80300
C1954       C  0.68923381  0.30451829  0.68231541     0.79700
N1955       N  0.66765499  0.32694190  0.69237151    -0.78600
C1956       C  0.66908187  0.32861910  0.71212467     0.82100
N1957       N  0.69241845  0.30801798  0.72190898    -0.78600
C1958       C  0.71322186  0.28477224  0.71212352     0.82200
N1959       N  0.71182025  0.28326308  0.69236605    -0.80300
N1960       N  0.50414163  0.39314521  0.78887369    -0.06700
N1961       N  0.97974767  0.36907484  0.79249775    -0.58800
N1962       N  0.52707553  0.47445454  0.80297670    -0.06400
N1963       N  0.51946698  0.99841218  0.81572128    -0.60900
N1964       N  0.50271624  0.47429055  0.78919944    -0.06000
N1965       N  0.97768477  0.49771735  0.79299328    -0.58800
N1966       N  0.52774738  0.39422081  0.80302117    -0.05600
N1967       N  0.51950475  0.37135489  0.81677431    -0.61300
C1968       C  0.48978832  0.35563840  0.80984541     0.95500
C1969       C  0.98918551  0.01327041  0.80901118     0.95300
N1970       N  0.63549624  0.47585642  0.78917776    -0.06900
N1971       N  0.66019313  0.99995565  0.79274784    -0.59400
N1972       N  0.61157895  0.39488539  0.80289979    -0.05000
N1973       N  0.61918277  0.37151604  0.81644206    -0.60600
N1974       N  0.63593725  0.39457654  0.78905733    -0.06900
N1975       N  0.66044789  0.37061394  0.79278501    -0.59600
N1976       N  0.61142841  0.47500579  0.80319078    -0.04600
N1977       N  0.62005094  0.99769031  0.81691321    -0.60700
Mn1978     Mn  0.56945156  0.43470391  0.80356512     1.18400
C1979       C  0.65037431  0.01282470  0.81033417     0.97600
C1980       C  0.64951559  0.35644769  0.80984191     0.98200
N1981       N  0.00273905  0.47468080  0.74368062    -0.06900
N1982       N  0.97711407  0.49745489  0.74002984    -0.63200
N1983       N  0.52777203  0.39449049  0.72919252    -0.05700
N1984       N  0.51964955  0.37152497  0.71543333    -0.63900
N1985       N  0.50394958  0.39362907  0.74329736    -0.06400
N1986       N  0.97941825  0.36976062  0.73959150    -0.63500
N1987       N  0.52653623  0.47470532  0.72953698    -0.05300
N1988       N  0.51891395  0.99774727  0.71519985    -0.64200
Mn1989     Mn  0.50235968  0.43390293  0.76626565     1.10700
C1990       C  0.98901532  0.01318916  0.72220058     0.98800
C1991       C  0.48959645  0.35618367  0.72225172     0.98900
N1992       N  0.63551522  0.39437229  0.74323166    -0.06400
N1993       N  0.65938015  0.36961106  0.73980319    -0.61800
N1994       N  0.61126610  0.47548316  0.72937985    -0.05700
N1995       N  0.61924533  0.99839113  0.71505418    -0.58500
N1996       N  0.63558020  0.47570050  0.74320785    -0.07100
N1997       N  0.65976816  0.00016120  0.73894244    -0.61400
N1998       N  0.61169250  0.39515117  0.72917279    -0.06000
N1999       N  0.61920523  0.37138276  0.71572452    -0.58600
Mn2000     Mn  0.63680263  0.43514683  0.76614501     1.20200
Mn2001     Mn  0.56936382  0.43505933  0.72872573     1.10100
Cl2002     Cl  0.56953141  0.43480661  0.76617055    -0.86500
C2003       C  0.64875076  0.35544752  0.72268747     0.95800
C2004       C  0.64933495  0.01384973  0.72170436     0.95600
C2005       C  0.77667175  0.06608025  0.92804640    -0.18400
C2006       C  0.76591671  0.07797395  0.90972517    -0.20600
C2007       C  0.73463856  0.06497598  0.90113873     0.20100
C2008       C  0.71294752  0.04118440  0.91151703    -0.03500
C2009       C  0.72377868  0.02919176  0.93005058    -0.06500
C2010       C  0.75630029  0.04103153  0.93806856     0.20400
C2011       C  0.70506067  0.49796782  0.93995195     0.18500
C2012       C  0.67505022  0.48319561  0.93090454    -0.18000
C2013       C  0.66379461  0.49531145  0.91267481    -0.20200
C2014       C  0.68158744  0.02779993  0.90290864     0.20000
C2015       C  0.67340552  0.03654185  0.88351270    -0.33300
C2016       C  0.69632401  0.05836304  0.87261506     0.00700
C2017       C  0.72591269  0.07377239  0.88192178    -0.24600
C2018       C  0.76900724  0.02600231  0.95532486    -0.29200
C2019       C  0.75051182  0.49695521  0.96524425     0.06400
C2020       C  0.71923438  0.48320125  0.95700528    -0.27800
H2021       H  0.80158501  0.07554913  0.93406630     0.11100
H2022       H  0.78274362  0.09641741  0.90197016     0.12200
H2023       H  0.66105481  0.46142024  0.93759614     0.11300
H2024       H  0.64132008  0.48263935  0.90568102     0.10600
H2025       H  0.65027813  0.02485561  0.87661654     0.15900
H2026       H  0.74366791  0.09087610  0.87383715     0.11900
H2027       H  0.79485413  0.03364782  0.96099301     0.14700
H2028       H  0.70730156  0.45981747  0.96322345     0.14500
C2029       C  0.97611011  0.36263824  0.91286704    -0.18400
C2030       C  0.96434142  0.37451363  0.93110732    -0.20600
C2031       C  0.93091661  0.36419725  0.93836532     0.20100
C2032       C  0.90986874  0.34035807  0.92757957    -0.03500
C2033       C  0.92190758  0.32812141  0.90931794    -0.06500
C2034       C  0.95472700  0.34008216  0.90166647     0.20400
C2035       C  0.90024693  0.30527309  0.89831218     0.18500
C2036       C  0.86731719  0.29405528  0.90579425    -0.18000
C2037       C  0.85518931  0.30649916  0.92376754    -0.20200
C2038       C  0.87597408  0.33007751  0.93457847     0.20000
C2039       C  0.86275375  0.34480580  0.95180921    -0.33300
C2040       C  0.88291062  0.36964653  0.96205670     0.00700
C2041       C  0.91733585  0.37855433  0.95570310    -0.24600
C2042       C  0.96460339  0.33074317  0.88258060    -0.29200
C2043       C  0.94211401  0.30942842  0.87118294     0.06400
C2044       C  0.91085095  0.29553579  0.87954745    -0.27800
H2045       H  0.00150430  0.37184482  0.90729577     0.11100
H2046       H  0.98088751  0.39263682  0.93925882     0.12200
H2047       H  0.85043592  0.27649211  0.89746816     0.11300
H2048       H  0.82919667  0.29831253  0.92900229     0.10600
H2049       H  0.83613916  0.33823370  0.95685537     0.15900
H2050       H  0.93258594  0.39796708  0.96371577     0.11900
H2051       H  0.98889569  0.34133976  0.87632587     0.14700
H2052       H  0.89327007  0.27901807  0.87099537     0.14500
C2053       C  0.68636926  0.15815531  0.60566588    -0.18400
C2054       C  0.69453501  0.14989605  0.62499044    -0.20600
C2055       C  0.68202005  0.11861109  0.63334729     0.20100
C2056       C  0.66211909  0.09480245  0.62194934    -0.03500
C2057       C  0.65407026  0.10302044  0.60238832    -0.06500
C2058       C  0.66564862  0.13521029  0.59437183     0.20400
C2059       C  0.63286561  0.07991855  0.59120447     0.18500
C2060       C  0.62120365  0.04819296  0.59941912    -0.18000
C2061       C  0.62930722  0.03999664  0.61879308    -0.20200
C2062       C  0.64914718  0.06342793  0.63029191     0.20000
C2063       C  0.65553882  0.05645011  0.65008285    -0.33300
C2064       C  0.67484543  0.08040064  0.66164261     0.00700
C2065       C  0.68838425  0.11117671  0.65302798    -0.24600
C2066       C  0.65427922  0.14494210  0.57570469    -0.29200
C2067       C  0.63110956  0.12315739  0.56513283     0.06400
C2068       C  0.62174069  0.09005373  0.57251956    -0.27800
H2069       H  0.69547135  0.18293502  0.59971658     0.11100
H2070       H  0.70997760  0.16837233  0.63354004     0.12200
H2071       H  0.60497510  0.03014810  0.59102589     0.11300
H2072       H  0.61934351  0.01568474  0.62491921     0.10600
H2073       H  0.64531030  0.03246578  0.65648535     0.15900
H2074       H  0.70333250  0.12982228  0.66173328     0.11900
H2075       H  0.66091587  0.17070187  0.57003639     0.14700
H2076       H  0.60333528  0.07365012  0.56441900     0.14500
C2077       C  0.52226965  0.31173698  0.60100485    -0.18400
C2078       C  0.51590587  0.32066721  0.62047535    -0.20600
C2079       C  0.99005285  0.30261546  0.63135205     0.20100
C2080       C  0.96950209  0.27612511  0.62231955    -0.03500
C2081       C  0.97583672  0.26717243  0.60266159    -0.06500
C2082       C  0.50286922  0.28462622  0.59210415     0.20400
C2083       C  0.95644601  0.23953253  0.59389967     0.18500
C2084       C  0.93000339  0.22202845  0.60464164    -0.18000
C2085       C  0.92353669  0.23110501  0.62408853    -0.20200
C2086       C  0.94355423  0.25768378  0.63311466     0.20000
C2087       C  0.93873524  0.26544473  0.65288885    -0.33300
C2088       C  0.95977952  0.29114521  0.66218002     0.00700
C2089       C  0.98503312  0.30998663  0.65120635    -0.24600
C2090       C  0.51174067  0.27303416  0.57333426    -0.29200
C2091       C  0.49436069  0.24392600  0.56519036     0.06400
C2092       C  0.96556661  0.22835850  0.57504469    -0.27800
H2093       H  0.54308070  0.32537565  0.59306832     0.11100
H2094       H  0.53178065  0.34117468  0.62715554     0.12200
H2095       H  0.91493759  0.20073771  0.59815459     0.11300
H2096       H  0.90344464  0.21677176  0.63220490     0.10600
H2097       H  0.91895716  0.25086488  0.66110136     0.15900
H2098       H  0.00120128  0.32999912  0.65814476     0.11900
H2099       H  0.53423464  0.28457927  0.56572046     0.14700
H2100       H  0.95266811  0.20550374  0.56877208     0.14500
C2101       C  0.59285518  0.30376163  0.92601294    -0.18400
C2102       C  0.60088296  0.31069093  0.90649564    -0.20600
C2103       C  0.63333163  0.29938200  0.89839395     0.20100
C2104       C  0.65831225  0.28159686  0.91015009    -0.03500
C2105       C  0.65040792  0.27497574  0.92990966    -0.06500
C2106       C  0.61726850  0.28565159  0.93776124     0.20400
C2107       C  0.67490740  0.25619321  0.94153191     0.18500
C2108       C  0.70738793  0.24501427  0.93342907    -0.18000
C2109       C  0.71522627  0.25161202  0.91383326    -0.20200
C2110       C  0.69069315  0.26947478  0.90202245     0.20000
C2111       C  0.69767774  0.27486446  0.88215566    -0.33300
C2112       C  0.67280044  0.29240955  0.87032702     0.00700
C2113       C  0.64088348  0.30493406  0.87864106    -0.24600
C2114       C  0.60815291  0.27592757  0.95679469    -0.29200
C2115       C  0.63145242  0.25519774  0.96787266     0.06400
C2116       C  0.66542130  0.24682838  0.96060430    -0.27800
H2117       H  0.56725765  0.31197767  0.93181566     0.11100
H2118       H  0.58142141  0.32434053  0.89763964     0.12200
H2119       H  0.72639233  0.23046095  0.94213252     0.11300
H2120       H  0.74024322  0.24222740  0.90782998     0.10600
H2121       H  0.72249122  0.26540683  0.87592057     0.15900
H2122       H  0.62148449  0.31839018  0.86964586     0.11900
H2123       H  0.58165906  0.28158005  0.96236966     0.14700
H2124       H  0.68286757  0.23005986  0.96907487     0.14500
C2125       C  0.02831521  0.04964589  0.92894542    -0.18400
C2126       C  0.01981422  0.04202047  0.90954380    -0.20600
C2127       C  0.99673995  0.06401095  0.89905797     0.20100
C2128       C  0.98130338  0.09341934  0.90834955    -0.03500
C2129       C  0.98978687  0.10106397  0.92791357    -0.06500
C2130       C  0.01384253  0.07935413  0.93817333     0.20400
C2131       C  0.97544167  0.13132760  0.93690930     0.18500
C2132       C  0.95192269  0.15297039  0.92654539    -0.18000
C2133       C  0.94331110  0.14523267  0.90721528    -0.20200
C2134       C  0.95821506  0.11582296  0.89793356     0.20000
C2135       C  0.95092729  0.10887316  0.87830887    -0.33300
C2136       C  0.96663449  0.07998095  0.86881710     0.00700
C2137       C  0.98932795  0.05748971  0.87935971    -0.24600
C2138       C  0.52457318  0.08895526  0.95703263    -0.29200
C2139       C  0.51198122  0.12022951  0.96546019     0.06400
C2140       C  0.98650294  0.14056605  0.95569006    -0.27800
H2141       H  0.04684150  0.03274890  0.93659211     0.11100
H2142       H  0.03179232  0.01926321  0.90263298     0.12200
H2143       H  0.94075443  0.17629885  0.93326612     0.11300
H2144       H  0.92549115  0.16262561  0.89940951     0.10600
H2145       H  0.93338855  0.12636010  0.87037089     0.15900
H2146       H  0.00140473  0.03497189  0.87225081     0.11900
H2147       H  0.54481800  0.07378949  0.96451549     0.14700
H2148       H  0.97742285  0.16499370  0.96217659     0.14500
C2149       C  0.88097450  0.08963478  0.62241849    -0.18400
C2150       C  0.86782309  0.07784531  0.60448718    -0.20600
C2151       C  0.88185806  0.04748232  0.59572251     0.20100
C2152       C  0.91021814  0.02944597  0.60481311    -0.03500
C2153       C  0.92359942  0.04145820  0.62284370    -0.06500
C2154       C  0.90840781  0.07127230  0.63186755     0.20400
C2155       C  0.95102751  0.02265915  0.63225232     0.18500
C2156       C  0.96555995  0.99269267  0.62333188    -0.18000
C2157       C  0.95214722  0.98064395  0.60554511    -0.20200
C2158       C  0.92416926  0.99851547  0.59632519     0.20000
C2159       C  0.90609874  0.48682499  0.57884528    -0.33300
C2160       C  0.87615302  0.50331196  0.57071715     0.00700
C2161       C  0.86274500  0.53428765  0.57911658    -0.24600
C2162       C  0.91940220  0.08091929  0.65066542    -0.29200
C2163       C  0.94492814  0.06072996  0.66070412     0.06400
C2164       C  0.96194127  0.03279665  0.65094095    -0.27800
H2165       H  0.86905254  0.11260796  0.62913460     0.11100
H2166       H  0.84608610  0.09200578  0.59769968     0.12200
H2167       H  0.48660279  0.97795544  0.63039642     0.11300
H2168       H  0.96317211  0.95691954  0.59919453     0.10600
H2169       H  0.91620514  0.46283937  0.57231291     0.15900
H2170       H  0.83946600  0.54674068  0.57281625     0.11900
H2171       H  0.90632638  0.10273403  0.65792377     0.14700
H2172       H  0.98186297  0.01719341  0.65839551     0.14500
C2173       C  0.77233519  0.30138703  0.60460451    -0.18400
C2174       C  0.76127672  0.28845323  0.62271800    -0.20600
C2175       C  0.73088471  0.30227681  0.63195612     0.20100
C2176       C  0.71048547  0.32821641  0.62243108    -0.03500
C2177       C  0.72165121  0.34130673  0.60415521    -0.06500
C2178       C  0.75319543  0.32836274  0.59543225     0.20400
C2179       C  0.70231679  0.36865019  0.59513700     0.18500
C2180       C  0.67118117  0.38149940  0.60402811    -0.18000
C2181       C  0.66008186  0.36845637  0.62210106    -0.20200
C2182       C  0.68001031  0.34244130  0.63162102     0.20000
C2183       C  0.67124244  0.33204053  0.65064289    -0.33300
C2184       C  0.69301771  0.30820815  0.66083804     0.00700
C2185       C  0.72181060  0.29217322  0.65100410    -0.24600
C2186       C  0.76603018  0.34392033  0.57826381    -0.29200
C2187       C  0.74785697  0.37232204  0.56984850     0.06400
C2188       C  0.71545991  0.38384945  0.57793256    -0.27800
H2189       H  0.79649209  0.29104151  0.59805582     0.11100
H2190       H  0.77715270  0.26840823  0.62978455     0.12200
H2191       H  0.65595714  0.40235724  0.59726724     0.11300
H2192       H  0.63653282  0.37955181  0.62892945     0.10600
H2193       H  0.64874768  0.34428848  0.65792494     0.15900
H2194       H  0.73868526  0.27356511  0.65857822     0.11900
H2195       H  0.79111913  0.33527356  0.57198425     0.14700
H2196       H  0.70169296  0.40593691  0.57141857     0.14500
C2197       C  0.69483988  0.95023213  0.10969544    -0.18400
C2198       C  0.68949019  0.95943901  0.12919319    -0.20600
C2199       C  0.70267547  0.99137188  0.13644272     0.20100
C2200       C  0.72067275  0.01470690  0.12389583    -0.03500
C2201       C  0.72587982  0.00552272  0.10417251    -0.06500
C2202       C  0.71335797  0.97287467  0.09715477     0.20400
C2203       C  0.74508348  0.02821723  0.09173543     0.18500
C2204       C  0.75777523  0.06036573  0.09896288    -0.16400
C2205       C  0.75240651  0.06956272  0.11851511    -0.20200
C2206       C  0.73436812  0.04670134  0.13117989     0.20000
C2207       C  0.73015215  0.05501470  0.15102635    -0.33300
C2208       C  0.71227110  0.03175709  0.16360379     0.00700
C2209       C  0.69854956  0.00007593  0.15610786    -0.24600
C2210       C  0.72167798  0.96242002  0.07811941    -0.29200
C2211       C  0.75367467  0.48824023  0.06730244     0.06400
C2212       C  0.76034891  0.52244217  0.07405200    -0.27800
H2213       H  0.68517962  0.92506057  0.10453488     0.11100
H2214       H  0.67554928  0.94130512  0.13868964     0.12200
H2215       H  0.77259034  0.58458489  0.09148686     0.11300
H2216       H  0.76293921  0.09428561  0.12381625     0.10600
H2217       H  0.74053292  0.07960442  0.15661965     0.15900
H2218       H  0.68480770  0.98183434  0.16563382     0.11900
H2219       H  0.73049784  0.43787816  0.07382128     0.14700
H2220       H  0.77538654  0.54047763  0.06499491     0.14500
C2221       C  0.62148539  0.02881543  0.40948201    -0.18400
C2222       C  0.60827863  0.04023978  0.42751966    -0.20600
C2223       C  0.62349454  0.06935682  0.43692607     0.20100
C2224       C  0.65311854  0.08637938  0.42837118    -0.03500
C2225       C  0.66639912  0.07487150  0.41015237    -0.06500
C2226       C  0.65005783  0.04638574  0.40050685     0.20400
C2227       C  0.69491091  0.09293626  0.40118606     0.18500
C2228       C  0.71084111  0.12138113  0.41086254    -0.18000
C2229       C  0.69769732  0.13279774  0.42889040    -0.20200
C2230       C  0.66844427  0.11593028  0.43756551     0.20000
C2231       C  0.65322829  0.12908856  0.45478194    -0.33300
C2232       C  0.62285243  0.11321424  0.46286226     0.00700
C2233       C  0.60869570  0.08274694  0.45425375    -0.24600
C2234       C  0.66118278  0.03725955  0.38160681    -0.29200
C2235       C  0.68785875  0.05679930  0.37196686     0.06400
C2236       C  0.70566588  0.08358252  0.38225796    -0.27800
H2237       H  0.60867767  0.00683481  0.40228942     0.11100
H2238       H  0.58560178  0.02681448  0.43388670     0.12200
H2239       H  0.73282881  0.13546620  0.40422114     0.11300
H2240       H  0.70983655  0.15542057  0.43580906     0.10600
H2241       H  0.66388613  0.15270033  0.46143888     0.15900
H2242       H  0.58506081  0.07075094  0.46048733     0.11900
H2243       H  0.64740779  0.01633547  0.37398595     0.14700
H2244       H  0.72644284  0.09867004  0.37513837     0.14500
C2245       C  0.93401256  0.46348512  0.42777580    -0.18400
C2246       C  0.94150716  0.47040063  0.40818989    -0.20600
C2247       C  0.92613358  0.99806385  0.39791278     0.20100
C2248       C  0.90787299  0.02302009  0.40944649    -0.03500
C2249       C  0.90185898  0.01637057  0.42941251    -0.06500
C2250       C  0.91364189  0.48718360  0.43884337     0.20400
C2251       C  0.88239206  0.04069810  0.44081595     0.18500
C2252       C  0.87015694  0.07191795  0.43228567    -0.18000
C2253       C  0.87631163  0.07859647  0.41250937    -0.20200
C2254       C  0.89470174  0.05411248  0.40091708     0.20000
C2255       C  0.89970130  0.05993428  0.38090430    -0.33300
C2256       C  0.91782399  0.03512438  0.36929641     0.00700
C2257       C  0.93113829  0.00436006  0.37798520    -0.24600
C2258       C  0.90263676  0.47856390  0.45776173    -0.29200
C2259       C  0.87945484  0.50080284  0.46810805     0.06400
C2260       C  0.87335174  0.03218998  0.46011083    -0.27800
H2261       H  0.94326211  0.43908679  0.43410950     0.11100
H2262       H  0.45658066  0.45131576  0.39983550     0.12200
H2263       H  0.85510978  0.09081601  0.44080455     0.11300
H2264       H  0.86612795  0.10265117  0.40619885     0.10600
H2265       H  0.88958237  0.08386406  0.37440742     0.15900
H2266       H  0.94508120  0.98501734  0.36920165     0.11900
H2267       H  0.90932926  0.45309034  0.46378580     0.14700
H2268       H  0.85590117  0.04934768  0.46841454     0.14500
C2269       C  0.72590706  0.24502595  0.12279290    -0.18400
C2270       C  0.71455059  0.23241578  0.10464556    -0.20600
C2271       C  0.68451877  0.24699267  0.09552391     0.20100
C2272       C  0.66679868  0.27567680  0.10434440    -0.03500
C2273       C  0.67841558  0.28854136  0.12258919    -0.06500
C2274       C  0.70748467  0.27250419  0.13209620     0.20400
C2275       C  0.65970283  0.31618389  0.13177550     0.18500
C2276       C  0.63059777  0.33173560  0.12229483    -0.18000
C2277       C  0.61892573  0.31884366  0.10431170    -0.20200
C2278       C  0.63631902  0.29034525  0.09544364     0.20000
C2279       C  0.62276385  0.27520681  0.07834362    -0.33300
C2280       C  0.63927657  0.24565826  0.07004411     0.00700
C2281       C  0.67081486  0.23236807  0.07827169    -0.24600
C2282       C  0.71615720  0.28272233  0.15119846    -0.29200
C2283       C  0.69575511  0.30840668  0.16104593     0.06400
C2284       C  0.66885241  0.32628933  0.15078544    -0.27800
H2285       H  0.74842413  0.23253702  0.12983044     0.11100
H2286       H  0.72857756  0.21051641  0.09804095     0.12200
H2287       H  0.61604934  0.35308488  0.12911444     0.11300
H2288       H  0.59565482  0.33054282  0.09759983     0.10600
H2289       H  0.59845852  0.28535412  0.07192146     0.15900
H2290       H  0.68342560  0.20950115  0.07180569     0.11900
H2291       H  0.73729427  0.26900039  0.15879222     0.14700
H2292       H  0.65319176  0.34637613  0.15804787     0.14500
C2293       C  0.94221930  0.14284059  0.10373541    -0.18400
C2294       C  0.92972441  0.13277759  0.12210632    -0.20600
C2295       C  0.94304448  0.10244741  0.13112912     0.20100
C2296       C  0.96794976  0.08113370  0.12116335    -0.03500
C2297       C  0.98048019  0.09120756  0.10258384    -0.06500
C2298       C  0.96817475  0.12269794  0.09409399     0.20400
C2299       C  0.50678111  0.07080965  0.09301710     0.18500
C2300       C  0.51895577  0.03970696  0.10169193    -0.18000
C2301       C  0.50652677  0.02974449  0.12012052    -0.20200
C2302       C  0.98168474  0.05072960  0.13015776     0.20000
C2303       C  0.97175793  0.04279193  0.14938706    -0.33300
C2304       C  0.94850971  0.06502646  0.15984842     0.00700
C2305       C  0.93324362  0.09407864  0.15030386    -0.24600
C2306       C  0.98354290  0.13453160  0.07669372    -0.29200
C2307       C  0.51119701  0.11545013  0.06782752     0.06400
C2308       C  0.52185120  0.08300994  0.07554685    -0.27800
H2309       H  0.93239403  0.16696891  0.09733901     0.11100
H2310       H  0.91045403  0.14932344  0.12952009     0.12200
H2311       H  0.53895034  0.02367501  0.09450754     0.11300
H2312       H  0.51715673  0.00618634  0.12677587     0.10600
H2313       H  0.98344820  0.02013872  0.15647260     0.15900
H2314       H  0.91517900  0.11136159  0.15810631     0.11900
H2315       H  0.97559825  0.15961438  0.07061941     0.14700
H2316       H  0.54337208  0.06856734  0.06862377     0.14500
C2317       C  0.68013521  0.39490753  0.42923202    -0.18400
C2318       C  0.67302108  0.38591604  0.40985528    -0.20600
C2319       C  0.69348406  0.36018620  0.40031861     0.20100
C2320       C  0.72071357  0.34258787  0.41054344    -0.03500
C2321       C  0.72798801  0.35173920  0.43009770    -0.06500
C2322       C  0.70792480  0.37841951  0.43937153     0.20400
C2323       C  0.75645650  0.33543711  0.44002662     0.18500
C2324       C  0.77622075  0.30899507  0.43065538    -0.18000
C2325       C  0.76870300  0.29962397  0.41135524    -0.20200
C2326       C  0.74145273  0.31670831  0.40104761     0.20000
C2327       C  0.73508482  0.30891398  0.38132088    -0.33300
C2328       C  0.70840639  0.32687310  0.37088892     0.00700
C2329       C  0.68756305  0.35226492  0.38063580    -0.24600
C2330       C  0.71754418  0.38974553  0.45811188    -0.29200
C2331       C  0.74764112  0.37552146  0.46734322     0.06400
C2332       C  0.76607650  0.34744963  0.45863855    -0.27800
H2333       H  0.66452537  0.41545110  0.43611495     0.11100
H2334       H  0.65189579  0.39955060  0.40221259     0.12200
H2335       H  0.79808800  0.29615363  0.43809425     0.11300
H2336       H  0.78478118  0.27958077  0.40434067     0.10600
H2337       H  0.75123347  0.28920081  0.37406155     0.15900
H2338       H  0.66676368  0.36620001  0.37289110     0.11900
H2339       H  0.70376100  0.41175533  0.46478463     0.14700
H2340       H  0.78951078  0.33683942  0.46575498     0.14500
C2341       C  0.95555005  0.39399773  0.10339242    -0.18400
C2342       C  0.96229486  0.38494114  0.12278603    -0.20600
C2343       C  0.94359142  0.35725856  0.13164423     0.20100
C2344       C  0.91870716  0.33775533  0.12070635    -0.03500
C2345       C  0.91183361  0.34693298  0.10114209    -0.06500
C2346       C  0.92993931  0.37556985  0.09256045     0.20400
C2347       C  0.88542330  0.32870862  0.09054190     0.18500
C2348       C  0.86762371  0.30029791  0.09919665    -0.18000
C2349       C  0.87474267  0.29096025  0.11851308    -0.20200
C2350       C  0.89962026  0.31001244  0.12953408     0.20000
C2351       C  0.90493051  0.30247986  0.14935761    -0.33300
C2352       C  0.92891552  0.32248929  0.16054334     0.00700
C2353       C  0.94861377  0.34943196  0.15139851    -0.24600
C2354       C  0.92022253  0.38684891  0.07385457    -0.29200
C2355       C  0.89148512  0.37093559  0.06415964     0.06400
C2356       C  0.87545596  0.34084062  0.07205676    -0.27800
H2357       H  0.96960029  0.41608580  0.09705327     0.11100
H2358       H  0.98159304  0.40010027  0.13099157     0.12200
H2359       H  0.84739862  0.28595424  0.09121561     0.11300
H2360       H  0.86002991  0.26945011  0.12500669     0.10600
H2361       H  0.88983454  0.28150965  0.15613582     0.15900
H2362       H  0.96744093  0.36495634  0.15972385     0.11900
H2363       H  0.93228831  0.41024492  0.06771929     0.14700
H2364       H  0.85322889  0.32874196  0.06450732     0.14500
C2365       C  0.52815694  0.30844887  0.42473711    -0.18400
C2366       C  0.51685401  0.32120131  0.40667766    -0.20600
C2367       C  0.98391845  0.31071155  0.39890251     0.20100
C2368       C  0.96156091  0.28815876  0.40970854    -0.03500
C2369       C  0.97280557  0.27554400  0.42802575    -0.06500
C2370       C  0.50659780  0.28519515  0.43535974     0.20400
C2371       C  0.95097818  0.25198560  0.43855090     0.18500
C2372       C  0.91774409  0.24212044  0.43094213    -0.18000
C2373       C  0.90673201  0.25443119  0.41271961    -0.20200
C2374       C  0.92871903  0.27691718  0.40183312     0.20000
C2375       C  0.91929191  0.28688463  0.38283538    -0.33300
C2376       C  0.94232975  0.30787857  0.37158051     0.00700
C2377       C  0.97388209  0.32087680  0.38007946    -0.24600
C2378       C  0.51886673  0.27015137  0.45272573    -0.29200
C2379       C  0.49779026  0.24568617  0.46278361     0.06400
C2380       C  0.96352029  0.23742810  0.45601028    -0.27800
H2381       H  0.55410301  0.31617434  0.43019773     0.11100
H2382       H  0.53432065  0.33851576  0.39854708     0.12200
H2383       H  0.90066483  0.22412579  0.43885323     0.11300
H2384       H  0.88137677  0.24566934  0.40692910     0.10600
H2385       H  0.89482643  0.27692972  0.37650137     0.15900
H2386       H  0.99193925  0.33705530  0.37161192     0.11900
H2387       H  0.54544463  0.27612474  0.45798974     0.14700
H2388       H  0.94762001  0.21817785  0.46376114     0.14500
C2389       C  0.93648279  0.81202212  0.35109434     0.79700
N2390       N  0.95854000  0.83350547  0.34078564    -0.78600
C2391       C  0.95923719  0.83216023  0.32102205     0.82100
N2392       N  0.93823187  0.80889936  0.31149500    -0.78600
C2393       C  0.91540859  0.78808917  0.32154412     0.82200
N2394       N  0.91470491  0.78949542  0.34131646    -0.80300
C2395       C  0.93228261  0.81429043  0.18153213     0.79700
N2396       N  0.91328656  0.78954047  0.19149072    -0.78600
C2397       C  0.91921447  0.78418919  0.21082470     0.82100
N2398       N  0.94410170  0.80370032  0.22018784    -0.78600
C2399       C  0.46246858  0.82898654  0.21056254     0.82200
N2400       N  0.95656655  0.83420380  0.19128148    -0.80300
C2401       C  0.70290002  0.82211192  0.34946915     0.79700
N2402       N  0.72137914  0.79624433  0.34013964    -0.78600
C2403       C  0.71386504  0.78790725  0.32131777     0.82100
N2404       N  0.68779377  0.80556144  0.31174981    -0.78600
C2405       C  0.66974587  0.83186661  0.32078840     0.82200
N2406       N  0.67731042  0.84000804  0.33959168    -0.80300
C2407       C  0.94271074  0.56012097  0.18211329     0.79700
N2408       N  0.92068467  0.58170609  0.19242563    -0.78600
C2409       C  0.92032524  0.58086673  0.21219751     0.82100
N2410       N  0.94240959  0.55866484  0.22177136    -0.78600
C2411       C  0.96366292  0.53618680  0.21170086     0.82200
N2412       N  0.96395976  0.53708914  0.19189406    -0.80300
N2413       N  0.52364862  0.99732121  0.28897459    -0.06700
N2414       N  0.49987951  0.52099909  0.29288827    -0.58800
N2415       N  0.60563004  0.97324387  0.30301339    -0.06400
N2416       N  0.62912877  0.98125315  0.31665132    -0.60900
N2417       N  0.60629518  0.99678358  0.28900139    -0.06000
N2418       N  0.63169268  0.52013741  0.29315419    -0.58800
N2419       N  0.52380477  0.97354475  0.30284735    -0.05600
N2420       N  0.49905631  0.98062286  0.31599580    -0.61300
C2421       C  0.48479527  0.51027577  0.30977132     0.95500
C2422       C  0.64487697  0.01071223  0.30976945     0.95300
N2423       N  0.60496993  0.86641955  0.28907413    -0.06900
N2424       N  0.62838116  0.84152065  0.29300251    -0.59400
N2425       N  0.52329515  0.89110688  0.30281466    -0.05000
N2426       N  0.50050232  0.88273781  0.31675779    -0.60600
N2427       N  0.52249506  0.86761569  0.28872036    -0.06900
N2428       N  0.49865339  0.84312119  0.29262562    -0.59600
N2429       N  0.60477142  0.89027588  0.30297272    -0.04600
N2430       N  0.62769407  0.88187280  0.31677930    -0.60700
Mn2431     Mn  0.56442028  0.93207771  0.30350023     1.18400
C2432       C  0.64237457  0.85160916  0.31026086     0.97600
C2433       C  0.98507914  0.85304098  0.31005041     0.98200
N2434       N  0.60620280  0.99728129  0.24362334    -0.06900
N2435       N  0.63092940  0.02122650  0.24037717    -0.63200
N2436       N  0.52451368  0.97426101  0.22918882    -0.05700
N2437       N  0.50298585  0.98415947  0.21497298    -0.63900
N2438       N  0.52391493  0.99746183  0.24345936    -0.06400
N2439       N  0.50193513  0.52253627  0.24002729    -0.63500
N2440       N  0.60602567  0.97364602  0.22960821    -0.05300
N2441       N  0.63036773  0.98130005  0.21635964    -0.64200
Mn2442     Mn  0.56499069  0.99825653  0.26627673     1.10700
C2443       C  0.64581663  0.01079544  0.22340582     0.98800
C2444       C  0.48848634  0.01433990  0.22176697     0.98900
N2445       N  0.52362281  0.86718055  0.24302673    -0.06400
N2446       N  0.50131307  0.84153747  0.23881119    -0.61800
N2447       N  0.60577313  0.89042443  0.22930315    -0.05700
N2448       N  0.62950772  0.88192833  0.21579639    -0.58500
N2449       N  0.60595854  0.86713539  0.24346336    -0.07100
N2450       N  0.63025348  0.84280861  0.24011298    -0.61400
N2451       N  0.52420248  0.89059168  0.22891939    -0.06000
N2452       N  0.50262183  0.88091866  0.21465468    -0.58600
Mn2453     Mn  0.56422967  0.86611341  0.26604866     1.20200
Mn2454     Mn  0.56509142  0.93225546  0.22861160     1.10100
Cl2455     Cl  0.56465047  0.93216044  0.26608476    -0.86500
C2456       C  0.98838212  0.85044970  0.22117526     0.95800
C2457       C  0.64480414  0.85242435  0.22291791     0.95600
C2458       C  0.69667011  0.80993834  0.18336357     0.79700
N2459       N  0.67387004  0.83187713  0.19294773    -0.78600
C2460       C  0.67170941  0.83133161  0.21271429     0.82100
N2461       N  0.69198698  0.80834486  0.22296108    -0.78600
C2462       C  0.71554610  0.78716414  0.21359770     0.82200
N2463       N  0.71767581  0.78791704  0.19386789    -0.80300
C2464       C  0.92577449  0.54288489  0.34916625     0.79700
N2465       N  0.95027925  0.52347234  0.33921691    -0.78600
C2466       C  0.45698462  0.52996138  0.32010910     0.82100
N2467       N  0.93908953  0.55599412  0.31084790    -0.78600
C2468       C  0.91398335  0.57494420  0.32050342     0.82200
N2469       N  0.90747199  0.56844166  0.33963857    -0.80300
C2470       C  0.69334367  0.55211633  0.35143152     0.79700
N2471       N  0.71516018  0.57466488  0.34160555    -0.78600
C2472       C  0.71497285  0.57562561  0.32178279     0.82100
N2473       N  0.69249832  0.55433274  0.31176403    -0.78600
C2474       C  0.67143052  0.53108789  0.32134443     0.82200
N2475       N  0.67176267  0.53020669  0.34111268    -0.80300
C2476       C  0.71151569  0.53756527  0.18597242     0.79700
N2477       N  0.68599026  0.51919778  0.19565562    -0.78600
C2478       C  0.67745093  0.52733209  0.21432007     0.82100
N2479       N  0.69463095  0.55398289  0.22347122    -0.78600
C2480       C  0.72068926  0.57209841  0.21410400     0.82200
N2481       N  0.72896457  0.56402123  0.19530591    -0.80300
N2482       N  0.88064072  0.72390561  0.29010912    -0.06700
N2483       N  0.90498367  0.74799895  0.29375623    -0.58800
N2484       N  0.85775007  0.64276041  0.30422428    -0.06400
N2485       N  0.86491898  0.61851429  0.31737390    -0.60900
N2486       N  0.88206787  0.64266317  0.29035344    -0.06000
N2487       N  0.90603218  0.61796914  0.29364074    -0.58800
N2488       N  0.85675854  0.72302772  0.30422363    -0.05600
N2489       N  0.86484655  0.74606559  0.31795267    -0.61300
C2490       C  0.89469862  0.76165077  0.31105402     0.95500
C2491       C  0.89491702  0.60316190  0.31048810     0.95300
N2492       N  0.74995650  0.64005683  0.29025731    -0.06900
N2493       N  0.72574437  0.61572508  0.29385102    -0.59400
N2494       N  0.77229607  0.72174156  0.30451648    -0.05000
N2495       N  0.76417865  0.74534301  0.31796747    -0.60600
N2496       N  0.74806776  0.72148192  0.29067137    -0.06900
N2497       N  0.72321547  0.74522102  0.29427141    -0.59600
N2498       N  0.77357463  0.64118288  0.30441862    -0.04600
N2499       N  0.76546605  0.61809914  0.31811983    -0.60700
Mn2500     Mn  0.81512731  0.68222725  0.30494714     1.18400
C2501       C  0.73581980  0.60216585  0.31119074     0.97600
C2502       C  0.73365460  0.75990558  0.31128637     0.98200
N2503       N  0.88262398  0.64215357  0.24465282    -0.06900
N2504       N  0.90804724  0.61920559  0.24072001    -0.63200
N2505       N  0.85809652  0.72287062  0.23031465    -0.05700
N2506       N  0.86730622  0.74398252  0.21586578    -0.63900
N2507       N  0.88237061  0.72347899  0.24415092    -0.06400
N2508       N  0.90827851  0.74547468  0.23949489    -0.63500
N2509       N  0.85892265  0.64266600  0.23053385    -0.05300
N2510       N  0.86815676  0.62064713  0.21650001    -0.64200
Mn2511     Mn  0.88299655  0.68309738  0.26736346     1.10700
C2512       C  0.89853672  0.60591744  0.22321079     0.98800
C2513       C  0.89847615  0.75811337  0.22187862     0.98900
N2514       N  0.74945921  0.72224833  0.24491841    -0.06400
N2515       N  0.72515442  0.74655536  0.24144135    -0.61800
N2516       N  0.77487956  0.64154613  0.23066560    -0.05700
N2517       N  0.76856419  0.61708376  0.21743904    -0.58500
N2518       N  0.75039266  0.64081640  0.24443526    -0.07100
N2519       N  0.72711421  0.61556514  0.24097209    -0.61400
N2520       N  0.77374819  0.72205463  0.23101461    -0.06000
N2521       N  0.76610216  0.74572119  0.21763206    -0.58600
Mn2522     Mn  0.74829539  0.68112041  0.26754828     1.20200
Mn2523     Mn  0.81630430  0.68231980  0.23011491     1.10100
Cl2524     Cl  0.81568076  0.68229336  0.26751324    -0.86500
C2525       C  0.73604888  0.76103715  0.22445862     0.95800
C2526       C  0.73884107  0.60101150  0.22413872     0.95600
N2527       N  0.81547478  0.93817910  0.54869988    -0.37200
N2528       N  0.77390928  0.90195528  0.51859777    -0.57700
N2529       N  0.81470659  0.93981098  0.48930331    -0.37200
N2530       N  0.85317070  0.97927902  0.51922753    -0.57700
C2531       C  0.79059447  0.92175731  0.55971884     0.26400
C2532       C  0.83128218  0.96280418  0.56003277     0.26400
C2533       C  0.78979857  0.92433092  0.47790892     0.26400
C2534       C  0.83182907  0.96388613  0.47826255     0.26400
C2535       C  0.76310667  0.88325678  0.53422692     0.35000
C2536       C  0.76215053  0.88464655  0.50264676     0.35000
C2537       C  0.87150274  0.98984401  0.53510737     0.35000
C2538       C  0.87212142  0.98972990  0.50350610     0.35000
C2539       C  0.79094256  0.93585710  0.57839599    -0.22500
C2540       C  0.81648105  0.96169573  0.57858327    -0.22500
C2541       C  0.79137742  0.93866759  0.45933444    -0.22500
C2542       C  0.81770537  0.96355271  0.45956876    -0.22500
C2543       C  0.74372663  0.85419854  0.52820431    -0.23500
C2544       C  0.74309136  0.85511218  0.50815238    -0.23500
C2545       C  0.90199249  0.00779607  0.52945653    -0.23500
C2546       C  0.90242742  0.00762845  0.50938176    -0.23500
C2547       C  0.76899845  0.89304159  0.55383351    -0.18900
C2548       C  0.86022780  0.98471176  0.55457057    -0.18900
C2549       C  0.86164623  0.98432636  0.48397217    -0.18900
C2550       C  0.76740381  0.89591095  0.48324847    -0.18900
H2551       H  0.77479017  0.92813547  0.59075677     0.14100
H2552       H  0.82363682  0.97746500  0.59111600     0.14100
H2553       H  0.77575003  0.93159743  0.44669027     0.14100
H2554       H  0.82588735  0.97913175  0.44716568     0.14100
H2555       H  0.73116925  0.83454976  0.53730221     0.12300
H2556       H  0.73004779  0.83628573  0.49872213     0.12300
H2557       H  0.91500356  0.52477899  0.53904239     0.12300
H2558       H  0.91583728  0.52469031  0.50046680     0.12300
H2559       H  0.82277246  0.93138482  0.53465149     0.25600
H2560       H  0.82142561  0.93269173  0.50333866     0.25600
N2561       N  0.57640954  0.68004451  0.04794585    -0.37200
N2562       N  0.53912199  0.64033939  0.01787495    -0.57700
N2563       N  0.57319703  0.68498901  0.98886786    -0.37200
N2564       N  0.61380211  0.72162787  0.01875502    -0.57700
C2565       C  0.56148981  0.65389090  0.05852422     0.26400
C2566       C  0.60258334  0.69456532  0.05890524     0.26400
C2567       C  0.55938330  0.65945738  0.97742116     0.26400
C2568       C  0.59691971  0.70301296  0.97790828     0.26400
C2569       C  0.52063964  0.62887922  0.03351734     0.35000
C2570       C  0.52089715  0.62970194  0.00198522     0.35000
C2571       C  0.62510235  0.73853853  0.03489510     0.35000
C2572       C  0.62190944  0.74241073  0.00345861     0.35000
C2573       C  0.57823510  0.65182572  0.07647354    -0.22500
C2574       C  0.60413849  0.67735266  0.07671193    -0.22500
C2575       C  0.57431969  0.66151714  0.95892986    -0.22500
C2576       C  0.59790813  0.68894512  0.95922550    -0.22500
C2577       C  0.99083950  0.61021041  0.02755490    -0.23500
C2578       C  0.99108174  0.61062448  0.00749421    -0.23500
C2579       C  0.64109148  0.77008548  0.02979657    -0.23500
C2580       C  0.63895505  0.77257598  0.00981296    -0.23500
C2581       C  0.53148165  0.63357880  0.05302212    -0.18900
C2582       C  0.62291496  0.72475870  0.05397063    -0.18900
C2583       C  0.61612891  0.73316481  0.98382569    -0.18900
C2584       C  0.53167113  0.63607146  0.98262980    -0.18900
H2585       H  0.57209815  0.63413365  0.08834064     0.14100
H2586       H  0.62144954  0.68300455  0.08890411     0.14100
H2587       H  0.56846800  0.64533675  0.94635521     0.14100
H2588       H  0.61365590  0.69770211  0.94692299     0.14100
H2589       H  0.97122021  0.59737823  0.03668778     0.12300
H2590       H  0.97160379  0.59835883  0.99805817     0.12300
H2591       H  0.65333242  0.78912140  0.03941530     0.12300
H2592       H  0.64921885  0.79381596  0.00096334     0.12300
H2593       H  0.56730170  0.68914253  0.03464620     0.25600
H2594       H  0.56512838  0.69134219  0.00287992     0.25600
N2595       N  0.55960178  0.67849782  0.48446622    -0.37200
N2596       N  0.59908714  0.64110549  0.51457656    -0.57700
N2597       N  0.56137687  0.68291931  0.54386491    -0.37200
N2598       N  0.51867413  0.71707152  0.51400599    -0.57700
C2599       C  0.57543478  0.65321242  0.47352012     0.26400
C2600       C  0.53488195  0.69455087  0.47321764     0.26400
C2601       C  0.57884460  0.65968979  0.55527404     0.26400
C2602       C  0.53566527  0.69799388  0.55496075     0.26400
C2603       C  0.61630056  0.62816914  0.49879909     0.35000
C2604       C  0.61845680  0.63185733  0.53034096     0.35000
C2605       C  0.50735257  0.73451566  0.49809130     0.35000
C2606       C  0.50673610  0.73525927  0.52962266     0.35000
C2607       C  0.56068469  0.65354388  0.45496881    -0.22500
C2608       C  0.53523542  0.67954196  0.45478359    -0.22500
C2609       C  0.56433048  0.66031729  0.57388990    -0.22500
C2610       C  0.53725390  0.68440227  0.57371248    -0.22500
C2611       C  0.64649025  0.60994502  0.50462484    -0.23500
C2612       C  0.64792331  0.61242421  0.52462921    -0.23500
C2613       C  0.98749625  0.76365054  0.50361614    -0.23500
C2614       C  0.98700659  0.76403874  0.52365510    -0.23500
C2615       C  0.60433524  0.63138640  0.47931783    -0.18900
C2616       C  0.51334038  0.72363446  0.47867861    -0.18900
C2617       C  0.51233399  0.72532633  0.54915134    -0.18900
C2618       C  0.60877636  0.63917957  0.54983779    -0.18900
H2619       H  0.56781911  0.63722462  0.44263952     0.14100
H2620       H  0.51908045  0.68677113  0.44236638     0.14100
H2621       H  0.57255868  0.64523625  0.58645571     0.14100
H2622       H  0.52107887  0.69133720  0.58620768     0.14100
H2623       H  0.66542746  0.59617356  0.49545269     0.12300
H2624       H  0.66806112  0.60089491  0.53391416     0.12300
H2625       H  0.97448138  0.78247356  0.49420348     0.12300
H2626       H  0.97366041  0.78322848  0.53276941     0.12300
H2627       H  0.56668280  0.68593565  0.49841030     0.25600
H2628       H  0.56819298  0.68966323  0.52975208     0.25600
N2629       N  0.81706153  0.93426231  0.98457486    -0.37200
N2630       N  0.77203646  0.96547582  0.01467614    -0.57700
N2631       N  0.81026306  0.92319371  0.04364152    -0.37200
N2632       N  0.85566473  0.89251858  0.01365069    -0.57700
C2633       C  0.79539340  0.95409272  0.97323581     0.26400
C2634       C  0.83791499  0.91466301  0.97260405     0.26400
C2635       C  0.79208582  0.94571080  0.05529925     0.26400
C2636       C  0.83597630  0.90816916  0.05473424     0.26400
C2637       C  0.75682348  0.98136030  0.99921684     0.35000
C2638       C  0.75378713  0.97599033  0.03061450     0.35000
C2639       C  0.87036206  0.87818997  0.99755191     0.35000
C2640       C  0.86878362  0.87468843  0.02902458     0.35000
C2641       C  0.80317426  0.94740949  0.95378213    -0.22500
C2642       C  0.82984979  0.92274365  0.95338702    -0.22500
C2643       C  0.80601308  0.94435129  0.07402243    -0.22500
C2644       C  0.83344005  0.92073996  0.07367891    -0.22500
C2645       C  0.72930561  0.49706935  0.00650443    -0.23500
C2646       C  0.73032708  0.49608650  0.02654564    -0.23500
C2647       C  0.89321862  0.85110310  0.00275623    -0.23500
C2648       C  0.89222342  0.84892184  0.02274247    -0.23500
C2649       C  0.76811342  0.97753481  0.97963574    -0.18900
C2650       C  0.86341355  0.88889170  0.97821229    -0.18900
C2651       C  0.86117395  0.88259551  0.04865876    -0.18900
C2652       C  0.76281130  0.96725016  0.04995391    -0.18900
H2653       H  0.79046942  0.95855400  0.94106512     0.14100
H2654       H  0.84152499  0.91162390  0.94031546     0.14100
H2655       H  0.79752403  0.95902643  0.08673712     0.14100
H2656       H  0.84966664  0.91380226  0.08610685     0.14100
H2657       H  0.70851191  0.50887670  0.99777763     0.12300
H2658       H  0.71058129  0.50708007  0.03634597     0.12300
H2659       H  0.90895041  0.83460234  0.99316631     0.12300
H2660       H  0.90717180  0.83065953  0.03162142     0.12300
H2661       H  0.81768690  0.93410698  0.99957595     0.25600
H2662       H  0.80434282  0.91730812  0.02926731     0.25600
C2663       C  0.94905522  0.80715452  0.85040953     0.79700
N2664       N  0.92739255  0.78470680  0.84054704    -0.78600
C2665       C  0.92621718  0.78503377  0.82082851     0.82100
N2666       N  0.94654366  0.80831284  0.81079440    -0.78600
C2667       C  0.96917554  0.83005820  0.82040311     0.82200
N2668       N  0.97018986  0.82964726  0.84019907    -0.80300
C2669       C  0.95743469  0.57117415  0.84935516     0.79700
N2670       N  0.97563097  0.54589262  0.83949815    -0.78600
C2671       C  0.96828924  0.53920839  0.82050878     0.82100
N2672       N  0.94252746  0.55782285  0.81127527    -0.78600
C2673       C  0.92471193  0.58362989  0.82088965     0.82200
N2674       N  0.93221487  0.59023986  0.83987371    -0.80300
C2675       C  0.69182493  0.56004435  0.85223555     0.79700
N2676       N  0.67068293  0.53760491  0.84194406    -0.78600
C2677       C  0.67185202  0.53713244  0.82214796     0.82100
N2678       N  0.69443275  0.55893095  0.81260401    -0.78600
C2679       C  0.71480307  0.58214292  0.82262303     0.82200
N2680       N  0.71368505  0.58248759  0.84240497    -0.80300
C2681       C  0.68114156  0.79995474  0.84986739     0.79700
N2682       N  0.66295200  0.82501488  0.83987169    -0.78600
C2683       C  0.67034059  0.83118491  0.82080600     0.82100
N2684       N  0.69589424  0.81207525  0.81164761    -0.78600
C2685       C  0.71358117  0.78645333  0.82137785     0.82200
N2686       N  0.70629262  0.78052711  0.84046468    -0.80300
C2687       C  0.68207132  0.57297787  0.68325841     0.79700
N2688       N  0.70665924  0.59206195  0.69328339    -0.78600
C2689       C  0.71329529  0.58510204  0.71232519     0.82100
N2690       N  0.69522399  0.55902874  0.72143798    -0.78600
C2691       C  0.67011439  0.54031927  0.71174693     0.82200
N2692       N  0.66360393  0.54725295  0.69265606    -0.80300
C2693       C  0.94480936  0.56194452  0.68280269     0.79700
N2694       N  0.96620320  0.53908854  0.69254793    -0.78600
C2695       C  0.96494473  0.53715073  0.71228478     0.82100
N2696       N  0.94186810  0.55779362  0.72235905    -0.78600
C2697       C  0.92131403  0.58146644  0.71283480     0.82200
N2698       N  0.92268475  0.58335612  0.69311770    -0.80300
N2699       N  0.85863729  0.61885098  0.79037110    -0.06700
N2700       N  0.88240133  0.59407808  0.79378771    -0.58800
N2701       N  0.77741228  0.64340835  0.80472118    -0.06400
N2702       N  0.75544237  0.63388780  0.81888688    -0.60900
N2703       N  0.77629728  0.62044177  0.79035268    -0.06000
N2704       N  0.75312994  0.59538083  0.79424365    -0.58800
N2705       N  0.85900896  0.64254889  0.80436158    -0.05600
N2706       N  0.88271151  0.63405266  0.81777160    -0.61300
C2707       C  0.89721688  0.60395309  0.81084959     0.95500
C2708       C  0.74022372  0.60415054  0.81196110     0.95300
N2709       N  0.77874968  0.75034663  0.79049016    -0.06900
N2710       N  0.75523713  0.77528595  0.79406937    -0.59400
N2711       N  0.86032612  0.72601528  0.80439816    -0.05000
N2712       N  0.88400504  0.73450815  0.81787142    -0.60600
N2713       N  0.86103950  0.74906170  0.79012718    -0.06900
N2714       N  0.88560726  0.77312289  0.79332235    -0.59600
N2715       N  0.77857332  0.72684647  0.80453792    -0.04600
N2716       N  0.75516386  0.73562879  0.81813259    -0.60700
Mn2717     Mn  0.81883722  0.68472922  0.80519448     1.18400
C2718       C  0.74072725  0.76572602  0.81126347     0.97600
C2719       C  0.89984414  0.76363402  0.81054858     0.98200
N2720       N  0.77659690  0.62026975  0.74469827    -0.06900
N2721       N  0.75320492  0.59550168  0.74054197    -0.63200
N2722       N  0.85898963  0.64246217  0.73090355    -0.05700
N2723       N  0.88148805  0.63320593  0.71697314    -0.63900
N2724       N  0.85891660  0.61894132  0.74493329    -0.06400
N2725       N  0.88185875  0.59359885  0.74105156    -0.63500
N2726       N  0.77751950  0.64391075  0.73073252    -0.05300
N2727       N  0.75506842  0.63544535  0.71666804    -0.64200
Mn2728     Mn  0.81754896  0.61869360  0.76760357     1.10700
C2729       C  0.73993725  0.60539123  0.72310983     0.98800
C2730       C  0.89581880  0.60298573  0.72367657     0.98900
N2731       N  0.86086774  0.74939029  0.74486673    -0.06400
N2732       N  0.88458458  0.77401546  0.74098172    -0.61800
N2733       N  0.77900263  0.72672381  0.73083368    -0.05700
N2734       N  0.75652400  0.73559185  0.71689963    -0.58500
N2735       N  0.77846604  0.75015635  0.74495473    -0.07100
N2736       N  0.75510094  0.77509571  0.74111334    -0.61400
N2737       N  0.86048282  0.72554778  0.73096343    -0.06000
N2738       N  0.88356569  0.73379032  0.71714487    -0.58600
Mn2739     Mn  0.81973448  0.75071634  0.76764072     1.20200
Mn2740     Mn  0.81903958  0.68466723  0.73028734     1.10100
Cl2741     Cl  0.81875568  0.68469152  0.76769869    -0.86500
C2742       C  0.89857948  0.76383108  0.72372958     0.95800
C2743       C  0.74155546  0.76550578  0.72367210     0.95600
C2744       C  0.95537602  0.79617472  0.68354745     0.79700
N2745       N  0.93104070  0.77731335  0.69382774    -0.78600
C2746       C  0.92532240  0.78398704  0.71297506     0.82100
N2747       N  0.94398735  0.80980187  0.72198494    -0.78600
C2748       C  0.96897423  0.82831983  0.71200682     0.82200
N2749       N  0.97462227  0.82151151  0.69279650    -0.80300
C2750       C  0.69379318  0.80763269  0.68288357     0.79700
N2751       N  0.67113495  0.82914092  0.69279949    -0.78600
C2752       C  0.67111097  0.82975401  0.71256307     0.82100
N2753       N  0.69407124  0.80904622  0.72253354    -0.78600
C2754       C  0.71587964  0.78661624  0.71283577     0.82200
N2755       N  0.71594239  0.78614299  0.69305303    -0.80300
N2756       N  0.50390747  0.89364675  0.78843158    -0.06700
N2757       N  0.97943616  0.86968195  0.79223212    -0.58800
N2758       N  0.52724019  0.97478809  0.80229097    -0.06400
N2759       N  0.51885546  0.49762259  0.81659488    -0.60900
N2760       N  0.50302877  0.97483508  0.78844356    -0.06000
N2761       N  0.97846708  0.99882789  0.79201373    -0.58800
N2762       N  0.52785457  0.89455657  0.80242845    -0.05600
N2763       N  0.51976405  0.87173039  0.81622030    -0.61300
C2764       C  0.48980235  0.85616191  0.80952184     0.95500
C2765       C  0.98820368  0.51204804  0.81006030     0.95300
N2766       N  0.63509950  0.97683421  0.78862607    -0.06900
N2767       N  0.66077590  0.49873227  0.79345619    -0.59400
N2768       N  0.61190343  0.89560175  0.80269112    -0.05000
N2769       N  0.61991204  0.87280001  0.81647060    -0.60600
N2770       N  0.63647057  0.89553185  0.78896334    -0.06900
N2771       N  0.66150488  0.87223747  0.79299383    -0.59600
N2772       N  0.61124491  0.97580313  0.80273229    -0.04600
N2773       N  0.62027945  0.49668514  0.81744676    -0.60700
Mn2774     Mn  0.56950129  0.93518589  0.80307169     1.18400
C2775       C  0.65082693  0.51157430  0.81103952     0.97600
C2776       C  0.65070583  0.85826351  0.81013596     0.98200
N2777       N  0.00320715  0.97506379  0.74285828    -0.06900
N2778       N  0.97875742  0.99919433  0.73940783    -0.63200
N2779       N  0.52760448  0.89412032  0.72881652    -0.05700
N2780       N  0.51940776  0.87084050  0.71521720    -0.63900
N2781       N  0.50352041  0.89386090  0.74280035    -0.06400
N2782       N  0.97879050  0.87012818  0.73918934    -0.63500
N2783       N  0.52705106  0.97449489  0.72874805    -0.05300
N2784       N  0.51710461  0.49701196  0.71574122    -0.64200
Mn2785     Mn  0.50231237  0.93434843  0.76564159     1.10700
C2786       C  0.98651327  0.51123918  0.72265495     0.98800
C2787       C  0.48906687  0.85594775  0.72202107     0.98900
N2788       N  0.63576260  0.89478272  0.74327434    -0.06400
N2789       N  0.66011032  0.87045496  0.74003705    -0.61800
N2790       N  0.61136996  0.97525528  0.72874771    -0.05700
N2791       N  0.61953682  0.49831888  0.71560773    -0.58500
N2792       N  0.63536866  0.97610906  0.74272509    -0.07100
N2793       N  0.66055976  0.49906237  0.73926087    -0.61400
N2794       N  0.61194325  0.89485548  0.72920155    -0.06000
N2795       N  0.62003198  0.87104955  0.71588260    -0.58600
Mn2796     Mn  0.63681014  0.93586568  0.76585265     1.20200
Mn2797     Mn  0.56955387  0.93465872  0.72825295     1.10100
Cl2798     Cl  0.56956780  0.93502829  0.76569512    -0.86500
C2799       C  0.64983016  0.85581896  0.72301319     0.95800
C2800       C  0.65016882  0.51294708  0.72207097     0.95600
C2801       C  0.77027314  0.57001785  0.93103188    -0.18400
C2802       C  0.75936812  0.58170558  0.91267551    -0.20600
C2803       C  0.73061214  0.56556341  0.90313464     0.20100
C2804       C  0.71144991  0.53863489  0.91261348    -0.03500
C2805       C  0.72259834  0.52665671  0.93109315    -0.06500
C2806       C  0.75270032  0.54190041  0.94009565     0.20400
C2807       C  0.70324642  0.00374803  0.93997267     0.18500
C2808       C  0.67093104  0.99229743  0.93183701    -0.18000
C2809       C  0.66017502  0.00424421  0.91346150    -0.20200
C2810       C  0.68253414  0.52221384  0.90313536     0.20000
C2811       C  0.67431745  0.53139726  0.88384489    -0.33300
C2812       C  0.69508595  0.55631352  0.87374512     0.00700
C2813       C  0.72211880  0.57442245  0.88385681    -0.24600
C2814       C  0.76610414  0.52726561  0.95731956    -0.29200
C2815       C  0.75005389  0.99879170  0.96441669     0.06400
C2816       C  0.71655106  0.98866750  0.95717158    -0.27800
H2817       H  0.79331212  0.58209076  0.93780080     0.11100
H2818       H  0.77420868  0.60258407  0.90565192     0.12200
H2819       H  0.65464421  0.97307611  0.93934588     0.11300
H2820       H  0.63579514  0.99400368  0.90718594     0.10600
H2821       H  0.65311442  0.51755733  0.87635427     0.15900
H2822       H  0.73809824  0.59395447  0.87638911     0.11900
H2823       H  0.79028848  0.53768640  0.96376115     0.14700
H2824       H  0.70204759  0.96760098  0.96425121     0.14500
C2825       C  0.97260516  0.87256421  0.91137857    -0.18400
C2826       C  0.96018089  0.88432610  0.92951262    -0.20600
C2827       C  0.92927234  0.86977172  0.93778707     0.20100
C2828       C  0.91174759  0.84185749  0.92819186    -0.03500
C2829       C  0.92441055  0.82987854  0.90998827    -0.06500
C2830       C  0.95438271  0.84597148  0.90127787     0.20400
C2831       C  0.90593024  0.80304207  0.90006207     0.18500
C2832       C  0.87583573  0.78752162  0.90865499    -0.18000
C2833       C  0.86312243  0.79955527  0.92660665    -0.20200
C2834       C  0.88045745  0.82712752  0.93627744     0.20000
C2835       C  0.86607473  0.84136874  0.95338323    -0.33300
C2836       C  0.88238732  0.87026599  0.96234359     0.00700
C2837       C  0.91448632  0.88374930  0.95492917    -0.24600
C2838       C  0.96429210  0.83657539  0.88220498    -0.29200
C2839       C  0.94448269  0.81136998  0.87176719     0.06400
C2840       C  0.91649429  0.79355101  0.88122646    -0.27800
H2841       H  0.99582515  0.88501654  0.90498451     0.11100
H2842       H  0.97407102  0.90559657  0.93675923     0.12200
H2843       H  0.86143687  0.76682778  0.90119260     0.11300
H2844       H  0.83918252  0.78792048  0.93267779     0.10600
H2845       H  0.84123450  0.83123798  0.95923970     0.15900
H2846       H  0.92681301  0.90616763  0.96197622     0.11900
H2847       H  0.98614992  0.85024627  0.87516405     0.14700
H2848       H  0.90118431  0.77384235  0.87348693     0.14500
C2849       C  0.68313879  0.66033606  0.60710481    -0.18400
C2850       C  0.69177823  0.65182867  0.62634049    -0.20600
C2851       C  0.68049548  0.61988803  0.63445570     0.20100
C2852       C  0.66101519  0.59589515  0.62295007    -0.03500
C2853       C  0.65245131  0.60439038  0.60348691    -0.06500
C2854       C  0.66316872  0.63699598  0.59564784     0.20400
C2855       C  0.63187978  0.58093769  0.59216705     0.18500
C2856       C  0.62098776  0.54882508  0.60022734    -0.18000
C2857       C  0.62963465  0.54034021  0.61948927    -0.20200
C2858       C  0.64918922  0.56389461  0.63105351     0.20000
C2859       C  0.65644289  0.55636318  0.65068209    -0.33300
C2860       C  0.67539272  0.58041160  0.66234946     0.00700
C2861       C  0.68772714  0.61190257  0.65399222    -0.24600
C2862       C  0.65197598  0.64653088  0.57691315    -0.29200
C2863       C  0.62985646  0.62412339  0.56605862     0.06400
C2864       C  0.62090482  0.59088726  0.57341813    -0.27800
H2865       H  0.69148719  0.68548890  0.60131052     0.11100
H2866       H  0.70678528  0.67051437  0.63498175     0.12200
H2867       H  0.60516470  0.53055376  0.59175440     0.11300
H2868       H  0.62044417  0.51561093  0.62545906     0.10600
H2869       H  0.64708142  0.53187843  0.65689366     0.15900
H2870       H  0.70232495  0.63066148  0.66280095     0.11900
H2871       H  0.65812104  0.67246216  0.57132036     0.14700
H2872       H  0.60312370  0.57407099  0.56516268     0.14500
C2873       C  0.52270664  0.81153656  0.60139198    -0.18400
C2874       C  0.51630914  0.81999549  0.62092575    -0.20600
C2875       C  0.99039904  0.80171643  0.63164716     0.20100
C2876       C  0.96976811  0.77554966  0.62240445    -0.03500
C2877       C  0.97592644  0.76728224  0.60263501    -0.06500
C2878       C  0.50313854  0.78480943  0.59224568     0.20400
C2879       C  0.95618576  0.74020223  0.59358541     0.18500
C2880       C  0.92976457  0.72242027  0.60419710    -0.18000
C2881       C  0.92367371  0.73062698  0.62379908    -0.20200
C2882       C  0.94388992  0.75676415  0.63308409     0.20000
C2883       C  0.93921121  0.76387826  0.65296342    -0.33300
C2884       C  0.96013014  0.78947896  0.66241129     0.00700
C2885       C  0.98536469  0.80858914  0.65154752    -0.24600
C2886       C  0.51203360  0.77357205  0.57340441    -0.29200
C2887       C  0.49425730  0.74495111  0.56497851     0.06400
C2888       C  0.96503635  0.72968373  0.57458466    -0.27800
H2889       H  0.54362927  0.82525983  0.59358853     0.11100
H2890       H  0.53224917  0.84026422  0.62778241     0.12200
H2891       H  0.91447996  0.70150642  0.59748978     0.11300
H2892       H  0.90362231  0.71604386  0.63180449     0.10600
H2893       H  0.91947891  0.74909568  0.66109625     0.15900
H2894       H  0.00149730  0.82849594  0.65860177     0.11900
H2895       H  0.53479978  0.78495376  0.56595626     0.14700
H2896       H  0.95182121  0.70722194  0.56807622     0.14500
C2897       C  0.59412397  0.80522918  0.92661506    -0.18400
C2898       C  0.60229062  0.81260235  0.90716530    -0.20600
C2899       C  0.63442465  0.80078352  0.89892616     0.20100
C2900       C  0.65892814  0.78192713  0.91047403    -0.03500
C2901       C  0.65091204  0.77488695  0.93017685    -0.06500
C2902       C  0.61808822  0.78615644  0.93816811     0.20400
C2903       C  0.67497602  0.75519401  0.94160376     0.18500
C2904       C  0.70709224  0.74336940  0.93334439    -0.18000
C2905       C  0.71500916  0.75032013  0.91379431    -0.20200
C2906       C  0.69095377  0.76925497  0.90220011     0.20000
C2907       C  0.69809077  0.77527388  0.88241165    -0.33300
C2908       C  0.67373175  0.79400431  0.87079780     0.00700
C2909       C  0.64213746  0.80695887  0.87924585    -0.24600
C2910       C  0.60879729  0.77614072  0.95713632    -0.29200
C2911       C  0.63166991  0.75467312  0.96803988     0.06400
C2912       C  0.66538402  0.74566138  0.96063672    -0.27800
H2913       H  0.56876903  0.81390978  0.93252290     0.11100
H2914       H  0.58318738  0.82705219  0.89846970     0.12200
H2915       H  0.72574051  0.72807812  0.94188813     0.11300
H2916       H  0.73973897  0.74046339  0.90766737     0.10600
H2917       H  0.72264555  0.76538388  0.87607597     0.15900
H2918       H  0.62311996  0.82126155  0.87041240     0.11900
H2919       H  0.58249170  0.78231137  0.96280480     0.14700
H2920       H  0.68248687  0.72832905  0.96896628     0.14500
C2921       C  0.02852947  0.54877550  0.92993745    -0.18400
C2922       C  0.01949299  0.54076749  0.91065459    -0.20600
C2923       C  0.99577796  0.56230810  0.90030685     0.20100
C2924       C  0.98018607  0.59159214  0.90964425    -0.03500
C2925       C  0.98914178  0.59957280  0.92910122    -0.06500
C2926       C  0.01389269  0.57837591  0.93919605     0.20400
C2927       C  0.97455861  0.62969150  0.93813647     0.18500
C2928       C  0.95040017  0.65087048  0.92792591    -0.18000
C2929       C  0.94140063  0.64285048  0.90868829    -0.20200
C2930       C  0.95650631  0.61358643  0.89935935     0.20000
C2931       C  0.94890626  0.60644598  0.87979286    -0.33300
C2932       C  0.96485911  0.57775491  0.87022521     0.00700
C2933       C  0.98798439  0.55555081  0.88067335    -0.24600
C2934       C  0.52509839  0.58837029  0.95790388    -0.29200
C2935       C  0.51210578  0.61945441  0.96637189     0.06400
C2936       C  0.98597496  0.63927329  0.95679019    -0.27800
H2937       H  0.04756692  0.53225653  0.93746340     0.11100
H2938       H  0.03160284  0.51811283  0.90370862     0.12200
H2939       H  0.93904963  0.67408160  0.93468226     0.11300
H2940       H  0.92312291  0.65992534  0.90098347     0.10600
H2941       H  0.93099542  0.62369447  0.87194306     0.15900
H2942       H  0.00023842  0.53318154  0.87351175     0.11900
H2943       H  0.54583809  0.57363813  0.96524968     0.14700
H2944       H  0.97661693  0.66357343  0.96330785     0.14500
C2945       C  0.87625316  0.58861960  0.62356188    -0.18400
C2946       C  0.86314511  0.57732404  0.60553108    -0.20600
C2947       C  0.87777896  0.54768841  0.59631040     0.20100
C2948       C  0.90692701  0.53013541  0.60494500    -0.03500
C2949       C  0.92021539  0.54161160  0.62310568    -0.06500
C2950       C  0.90421137  0.57045585  0.63265939     0.20400
C2951       C  0.94822651  0.52306159  0.63215921     0.18500
C2952       C  0.96375170  0.49421073  0.62261829    -0.18000
C2953       C  0.95049196  0.48273353  0.60466996    -0.20200
C2954       C  0.92161834  0.50003348  0.59593283     0.20000
C2955       C  0.90893491  0.98522387  0.57919657    -0.33300
C2956       C  0.88001592  0.00244276  0.57048373     0.00700
C2957       C  0.86710443  0.03397532  0.57847816    -0.24600
C2958       C  0.91487206  0.57922051  0.65163266    -0.29200
C2959       C  0.94078885  0.55901930  0.66135796     0.06400
C2960       C  0.95866504  0.53220140  0.65110239    -0.27800
H2961       H  0.86377343  0.61091226  0.63067270     0.11100
H2962       H  0.84087282  0.59116788  0.59906701     0.12200
H2963       H  0.48540648  0.47977332  0.62936611     0.11300
H2964       H  0.96218629  0.45972184  0.59788216     0.10600
H2965       H  0.91849947  0.96070815  0.57303808     0.15900
H2966       H  0.84445026  0.04687709  0.57178923     0.11900
H2967       H  0.90119526  0.60026560  0.65925320     0.14700
H2968       H  0.97896570  0.51669472  0.65831123     0.14500
C2969       C  0.77739950  0.80373359  0.60519446    -0.18400
C2970       C  0.76683157  0.79170929  0.62357647    -0.20600
C2971       C  0.73655199  0.80583509  0.63277595     0.20100
C2972       C  0.71590834  0.83132525  0.62303731    -0.03500
C2973       C  0.72652092  0.84342764  0.60448036    -0.06500
C2974       C  0.75785310  0.83006733  0.59572013     0.20400
C2975       C  0.70680170  0.87016816  0.59516062     0.18500
C2976       C  0.67600448  0.88359411  0.60412477    -0.18000
C2977       C  0.66547275  0.87155185  0.62249625    -0.20200
C2978       C  0.68560626  0.84593252  0.63220907     0.20000
C2979       C  0.67695982  0.83599780  0.65130104    -0.33300
C2980       C  0.69857312  0.81211988  0.66155498     0.00700
C2981       C  0.72759138  0.79619185  0.65189536    -0.24600
C2982       C  0.77012506  0.84468261  0.57820167    -0.29200
C2983       C  0.75155530  0.87250397  0.56948471     0.06400
C2984       C  0.71930936  0.88431907  0.57757790    -0.27800
H2985       H  0.80143527  0.79313976  0.59863372     0.11100
H2986       H  0.78290694  0.77203765  0.63082829     0.12200
H2987       H  0.66057529  0.90407820  0.59715309     0.11300
H2988       H  0.64209254  0.88296603  0.62933620     0.10600
H2989       H  0.65439357  0.84829332  0.65849152     0.15900
H2990       H  0.74443182  0.77768659  0.65956838     0.11900
H2991       H  0.79516660  0.83592148  0.57191082     0.14700
H2992       H  0.70535040  0.90606486  0.57083301     0.14500
C2993       C  0.70987500  0.44850713  0.11051792    -0.18400
C2994       C  0.70367039  0.45647153  0.13010855    -0.20600
C2995       C  0.71337465  0.48935306  0.13767414     0.20100
C2996       C  0.72866114  0.51484371  0.12531266    -0.03500
C2997       C  0.73468318  0.50690528  0.10548475    -0.06500
C2998       C  0.72576924  0.47334509  0.09818963     0.20400
C2999       C  0.75110257  0.53191223  0.09320357     0.18500
C3000       C  0.76004598  0.56507254  0.10071035    -0.16400
C3001       C  0.75391134  0.57299813  0.12037702    -0.20200
C3002       C  0.73879660  0.54786826  0.13287132     0.20000
C3003       C  0.73388994  0.55501360  0.15280181    -0.33300
C3004       C  0.71858221  0.52967871  0.16518230     0.00700
C3005       C  0.70833186  0.49698988  0.15744227    -0.24600
C3006       C  0.73499591  0.46440624  0.07905989    -0.29200
C3007       C  0.74302050  0.98379783  0.06623912     0.06400
C3008       C  0.75329315  0.01728281  0.07271691    -0.27800
H3009       H  0.70294584  0.42263830  0.10511029     0.11100
H3010       H  0.69180499  0.43668738  0.13942440     0.12200
H3011       H  0.77257598  0.07805193  0.08960090     0.11300
H3012       H  0.76159432  0.59857462  0.12589732     0.10600
H3013       H  0.74149119  0.58042932  0.15859742     0.15900
H3014       H  0.69658073  0.47727240  0.16685634     0.11900
H3015       H  0.71445937  0.93633233  0.07312283     0.14700
H3016       H  0.77037810  0.03332005  0.06357917     0.14500
C3017       C  0.62201994  0.52766665  0.41043934    -0.18400
C3018       C  0.60890012  0.53918689  0.42848124    -0.20600
C3019       C  0.62457740  0.56797059  0.43798203     0.20100
C3020       C  0.65491793  0.58414971  0.42967897    -0.03500
C3021       C  0.66802828  0.57263371  0.41141787    -0.06500
C3022       C  0.65091298  0.54485966  0.40154230     0.20400
C3023       C  0.69697643  0.59021676  0.40257216     0.18500
C3024       C  0.71392137  0.61770688  0.41257977    -0.18000
C3025       C  0.70104012  0.62903627  0.43068816    -0.20200
C3026       C  0.67095329  0.61312431  0.43907156     0.20000
C3027       C  0.65545556  0.62690732  0.45607609    -0.33300
C3028       C  0.62404289  0.61228023  0.46370793     0.00700
C3029       C  0.60942901  0.58204007  0.45506190    -0.24600
C3030       C  0.66151700  0.53620993  0.38248191    -0.29200
C3031       C  0.68842347  0.55556471  0.37290976     0.06400
C3032       C  0.70710513  0.58145721  0.38344248    -0.27800
H3033       H  0.60872146  0.50611809  0.40311190     0.11100
H3034       H  0.58578543  0.52627679  0.43470518     0.12200
H3035       H  0.73638715  0.63128116  0.40609012     0.11300
H3036       H  0.71384295  0.65109603  0.43780446     0.10600
H3037       H  0.66664417  0.65018700  0.46282836     0.15900
H3038       H  0.58517920  0.57081452  0.46102680     0.11900
H3039       H  0.64714291  0.51587898  0.37470093     0.14700
H3040       H  0.72816542  0.59628421  0.37640299     0.14500
C3041       C  0.93245363  0.96024385  0.42618384    -0.18400
C3042       C  0.93862720  0.96695600  0.40644556    -0.20600
C3043       C  0.92866270  0.50107778  0.39934386     0.20100
C3044       C  0.90927958  0.52573758  0.41052767    -0.03500
C3045       C  0.90190030  0.51887205  0.43035251    -0.06500
C3046       C  0.91380010  0.98458572  0.43771303     0.20400
C3047       C  0.88106432  0.54272221  0.44133876     0.18500
C3048       C  0.86940578  0.57403462  0.43266012    -0.18000
C3049       C  0.87687401  0.58090980  0.41302448    -0.20200
C3050       C  0.89606304  0.55655201  0.40172525     0.20000
C3051       C  0.90154233  0.56204429  0.38170182    -0.33300
C3052       C  0.92022391  0.53718763  0.37035136     0.00700
C3053       C  0.93414331  0.50704280  0.37940706    -0.24600
C3054       C  0.90469441  0.97658639  0.45699675    -0.29200
C3055       C  0.88300784  0.99944980  0.46786882     0.06400
C3056       C  0.87011997  0.53359753  0.46027607    -0.27800
H3057       H  0.94161961  0.93566261  0.43233756     0.11100
H3058       H  0.45269694  0.94755307  0.39778322     0.12200
H3059       H  0.85353779  0.59270227  0.44088539     0.11300
H3060       H  0.86681531  0.60486482  0.40654033     0.10600
H3061       H  0.89110488  0.58562423  0.37496709     0.15900
H3062       H  0.94870646  0.48778240  0.37087446     0.11900
H3063       H  0.91137692  0.95104596  0.46294084     0.14700
H3064       H  0.85177463  0.55041955  0.46820227     0.14500
C3065       C  0.72486930  0.74169677  0.12400583    -0.18400
C3066       C  0.71434236  0.72947152  0.10563669    -0.20600
C3067       C  0.68494214  0.74448139  0.09613431     0.20100
C3068       C  0.66695883  0.77311693  0.10484929    -0.03500
C3069       C  0.67775492  0.78560469  0.12330613    -0.06500
C3070       C  0.70626072  0.76923470  0.13313501     0.20400
C3071       C  0.65886181  0.81331385  0.13232115     0.18500
C3072       C  0.63032968  0.82921348  0.12250849    -0.18000
C3073       C  0.61942582  0.81665237  0.10431878    -0.20200
C3074       C  0.63704672  0.78816324  0.09558719     0.20000
C3075       C  0.62419946  0.77336531  0.07826237    -0.33300
C3076       C  0.64090015  0.74384562  0.07006957     0.00700
C3077       C  0.67204397  0.73029976  0.07859767    -0.24600
C3078       C  0.71434415  0.77936891  0.15231022    -0.29200
C3079       C  0.69396617  0.80535691  0.16190059     0.06400
C3080       C  0.66740288  0.82330907  0.15142247    -0.27800
H3081       H  0.74694778  0.72894962  0.13130954     0.11100
H3082       H  0.72851907  0.70756627  0.09913454     0.12200
H3083       H  0.61566477  0.85062057  0.12919588     0.11300
H3084       H  0.59658119  0.82861796  0.09732040     0.10600
H3085       H  0.60019161  0.78368751  0.07159423     0.15900
H3086       H  0.68478228  0.70743612  0.07220100     0.11900
H3087       H  0.73516672  0.76554387  0.16010174     0.14700
H3088       H  0.65171099  0.84356746  0.15851667     0.14500
C3089       C  0.94334283  0.64594280  0.10571355    -0.18400
C3090       C  0.93071080  0.63553143  0.12401693    -0.20600
C3091       C  0.94292269  0.60429636  0.13256805     0.20100
C3092       C  0.96679288  0.58250667  0.12218277    -0.03500
C3093       C  0.97943980  0.59292968  0.10366358    -0.06500
C3094       C  0.96831756  0.62524526  0.09564375     0.20400
C3095       C  0.50461934  0.57192727  0.09365712     0.18500
C3096       C  0.51562936  0.53998508  0.10184826    -0.18000
C3097       C  0.50313678  0.52969961  0.12021062    -0.20200
C3098       C  0.97941132  0.55117526  0.13069413     0.20000
C3099       C  0.96954347  0.54275928  0.14988446    -0.33300
C3100       C  0.94742042  0.56539235  0.16078238     0.00700
C3101       C  0.93311203  0.59542088  0.15168839    -0.24600
C3102       C  0.98381209  0.63714315  0.07824425    -0.29200
C3103       C  0.51029043  0.61724249  0.06886419     0.06400
C3104       C  0.51972898  0.58413912  0.07618869    -0.27800
H3105       H  0.93437978  0.67070698  0.09969687     0.11100
H3106       H  0.91222959  0.65247394  0.13175112     0.12200
H3107       H  0.53476234  0.52345651  0.09431959     0.11300
H3108       H  0.51288161  0.50542703  0.12646928     0.10600
H3109       H  0.98044853  0.51938065  0.15661215     0.15900
H3110       H  0.91590819  0.61305746  0.15982238     0.11900
H3111       H  0.97674728  0.66273235  0.07250667     0.14700
H3112       H  0.54033935  0.56900495  0.06890376     0.14500
C3113       C  0.68159709  0.89619671  0.42942747    -0.18400
C3114       C  0.67426998  0.88771147  0.40998608    -0.20600
C3115       C  0.69512203  0.86278161  0.40003834     0.20100
C3116       C  0.72302889  0.84554616  0.40992689    -0.03500
C3117       C  0.73047045  0.85413667  0.42953629    -0.06500
C3118       C  0.70995886  0.87996704  0.43923693     0.20400
C3119       C  0.75944135  0.83802228  0.43913268     0.18500
C3120       C  0.77969536  0.81245783  0.42935232    -0.18000
C3121       C  0.77204813  0.80366175  0.41000644    -0.20200
C3122       C  0.74415898  0.82044092  0.40007621     0.20000
C3123       C  0.73741751  0.81290195  0.38039844    -0.33300
C3124       C  0.70993785  0.83026734  0.37030722     0.00700
C3125       C  0.68882690  0.85511729  0.38032391    -0.24600
C3126       C  0.71961917  0.89066515  0.45809724    -0.29200
C3127       C  0.75008716  0.87655319  0.46704074     0.06400
C3128       C  0.76900030  0.84931440  0.45787055    -0.27800
H3129       H  0.66562727  0.91609850  0.43663896     0.11100
H3130       H  0.65262643  0.90107105  0.40263189     0.12200
H3131       H  0.80197575  0.79981539  0.43652683     0.11300
H3132       H  0.78843391  0.78422560  0.40268205     0.10600
H3133       H  0.75383751  0.79367140  0.37292465     0.15900
H3134       H  0.66742527  0.86858003  0.37281201     0.11900
H3135       H  0.70550773  0.91211739  0.46511544     0.14700
H3136       H  0.79275939  0.83887334  0.46474343     0.14500
C3137       C  0.94896739  0.88805841  0.10137578    -0.18400
C3138       C  0.95759035  0.87964090  0.12064849    -0.20600
C3139       C  0.93913956  0.85289058  0.13049434     0.20100
C3140       C  0.91269999  0.83352574  0.12059312    -0.03500
C3141       C  0.90408626  0.84191039  0.10112059    -0.06500
C3142       C  0.92181514  0.86980404  0.09161325     0.20400
C3143       C  0.87637811  0.82365601  0.09155954     0.18500
C3144       C  0.85876946  0.79616513  0.10117376    -0.18000
C3145       C  0.86745326  0.78774457  0.12041768    -0.20200
C3146       C  0.89382747  0.80673762  0.13038416     0.20000
C3147       C  0.90085257  0.80009193  0.15012485    -0.33300
C3148       C  0.92638196  0.82000265  0.16032858     0.00700
C3149       C  0.94590290  0.84591533  0.15022618    -0.24600
C3150       C  0.91038789  0.88044226  0.07306911    -0.29200
C3151       C  0.88092984  0.86408602  0.06426845     0.06400
C3152       C  0.86510000  0.83479734  0.07311723    -0.27800
H3153       H  0.96284963  0.90950846  0.09429654     0.11100
H3154       H  0.97809553  0.89465703  0.12801596     0.12200
H3155       H  0.83752537  0.78184983  0.09400688     0.11300
H3156       H  0.85286418  0.76696058  0.12767853     0.10600
H3157       H  0.88583201  0.77987666  0.15762242     0.15900
H3158       H  0.96588533  0.86128990  0.15779693     0.11900
H3159       H  0.92213603  0.90338731  0.06626408     0.14700
H3160       H  0.84213123  0.82258399  0.06632514     0.14500
C3161       C  0.52379100  0.81178770  0.42685996    -0.18400
C3162       C  0.51238773  0.82504059  0.40894541    -0.20600
C3163       C  0.98049858  0.81308029  0.40056216     0.20100
C3164       C  0.95892072  0.78893110  0.41077310    -0.03500
C3165       C  0.97030988  0.77570308  0.42891502    -0.06500
C3166       C  0.50338653  0.78652315  0.43669911     0.20400
C3167       C  0.94957420  0.75025261  0.43872057     0.18500
C3168       C  0.91687647  0.73957330  0.43075470    -0.18000
C3169       C  0.90568711  0.75257011  0.41270718    -0.20200
C3170       C  0.92699314  0.77650291  0.40236917     0.20000
C3171       C  0.91809301  0.78652150  0.38331308    -0.33300
C3172       C  0.94088453  0.80855951  0.37249794     0.00700
C3173       C  0.97104353  0.82314950  0.38164009    -0.24600
C3174       C  0.51628112  0.77060014  0.45365373    -0.29200
C3175       C  0.49658863  0.74404468  0.46282578     0.06400
C3176       C  0.96279948  0.73470131  0.45576258    -0.27800
H3177       H  0.54909918  0.82051406  0.43273226     0.11100
H3178       H  0.52915568  0.84370875  0.40131906     0.12200
H3179       H  0.90052902  0.72027423  0.43816385     0.11300
H3180       H  0.88094413  0.74299324  0.40653366     0.10600
H3181       H  0.89451579  0.77550118  0.37653255     0.15900
H3182       H  0.98870456  0.84037340  0.37357094     0.11900
H3183       H  0.54234058  0.77763633  0.45927408     0.14700
H3184       H  0.94781272  0.71411262  0.46297719     0.14500
loop_ 
_geom_bond_atom_site_label_1 
_geom_bond_atom_site_label_2 
_geom_bond_distance 
_geom_bond_site_symmetry_2 
_ccdc_geom_bond_type 
C1            N2   1.359       .  A
C1            N6   1.362       .  A
C1          C784   1.484       .  S
N2            C3   1.355       .  A
C3            N4   1.354       .  A
C3           C45   1.460       .  S
N4            C5   1.355       .  A
C5            N6   1.360       .  A
C5          C102   1.463       .  S
C7            N8   1.366       .  A
C7           N12   1.358       .  A
C7          C760   1.487       .  S
N8            C9   1.364       .  A
C9           N10   1.356       .  A
C9          C125   1.472       .  S
N10        C1603   1.355       .  A
C11        N1602   1.355       .  A
C11        N1604   1.352       .  A
C11        C1660   1.460       .  S
N12        C1603   1.352       .  A
C13          N14   1.363       .  A
C13          N18   1.360       .  A
C13         C736   1.487       .  S
N14          C15   1.361       .  A
C15          N16   1.355       .  A
C15         C114   1.465       .  S
N16          C17   1.354       .  A
C17          N18   1.355       .  A
C17          C44   1.461       .  S
C19          N20   1.362       .  A
C19          N24   1.362       .  A
C19         C712   1.486       .  S
N20          C21   1.358       .  A
C21          N22   1.354       .  A
C21         C124   1.462       .  S
N22          C23   1.354       .  A
C23          N24   1.357       .  A
C23        C2444   1.462       .  S
N25          N31   1.315       .  A
N25         N822   1.320   1_455  A
N25         Mn54   2.202       .  S
N26          C33   1.351       .  A
N26         N821   1.319   1_645  A
N27          N29   1.316       .  A
N27          N28   1.322       .  A
N27         Mn43   2.202       .  S
N28          C34   1.353       .  A
N29         N826   1.319       .  A
N29         Mn54   2.204       .  S
N30         C830   1.350       .  A
N30         N825   1.319   1_545  A
N31          N32   1.321       .  A
N31         Mn43   2.196       .  S
N32         C829   1.352   1_455  A
C33         N828   1.352   1_545  A
C33          C78   1.460       .  S
C34         N826   1.351       .  A
C34         C882   1.465       .  S
N35          N41   1.316       .  A
N35          N36   1.319       .  A
N35         Mn65   2.195       .  S
N36          C44   1.350       .  A
N37          N38   1.320   1_455  A
N37          N39   1.316       .  A
N37         Mn43   2.192       .  S
N38        C1637   1.351       .  A
N39          N40   1.319   1_455  A
N39         Mn65   2.204       .  S
N40        C1637   1.351       .  A
N41          N42   1.320       .  A
N41         Mn43   2.197       .  S
N42          C44   1.351       .  A
Mn43        Cl67   2.568       .  S
C45        N1630   1.351       .  A
C45        N1632   1.351       .  A
N46          N47   1.319       .  A
N46          N52   1.316       .  A
N46         Mn54   2.199       .  S
N47          C55   1.351       .  A
N48          N50   1.317       .  A
N48          N49   1.323       .  A
N48         Mn66   2.209       .  S
N49          C56   1.353   1_455  A
N50         N847   1.319       .  A
N50         Mn54   2.202       .  S
N51         C852   1.349   1_455  A
N51         N846   1.318   1_545  A
N52          N53   1.320       .  A
N52         Mn66   2.197       .  S
N53          C55   1.352       .  A
Mn54        Cl67   2.517       .  S
C55         C886   1.463       .  S
C56         N847   1.350   1_655  A
C56        C2411   1.466       .  S
N57          N58   1.318       .  A
N57          N63   1.316       .  A
N57         Mn65   2.189       .  S
N58        C1660   1.348   1_455  A
N59          N60   1.322       .  A
N59          N61   1.317       .  A
N59         Mn66   2.201       .  S
N60          C69   1.352       .  A
N61          N62   1.320       .  A
N61         Mn65   2.210       .  S
N62          C69   1.352       .  A
N63          N64   1.321       .  A
N63         Mn66   2.202       .  S
N64        C1660   1.353   1_455  A
Mn65        Cl67   2.517       .  S
Mn66        Cl67   2.571       .  S
C68        N1650   1.348       .  A
C68        N1656   1.353       .  A
C68        C1603   1.460       .  S
C69          C72   1.467       .  S
C70          N71   1.363       .  A
C70          N75   1.360       .  A
C70         C691   1.488       .  S
N71          C72   1.360       .  A
C72          N73   1.356       .  A
N73          C74   1.355       .  A
C74          N75   1.357       .  A
C74         C137   1.461       .  S
C76          N77   1.359       .  A
C76          N81   1.360       .  A
C76         C664   1.481       .  S
N77        C1670   1.356       .  A
C78        N1669   1.356       .  A
C78        N1671   1.355       .  A
N79          C80   1.356       .  A
N79        C1670   1.355       .  A
C80          N81   1.359       .  A
C80         C103   1.463       .  S
C82          N83   1.363       .  A
C82          N87   1.361       .  A
C82         C643   1.489       .  S
N83          C84   1.360       .  A
C84          N85   1.356       .  A
C84         C113   1.469       .  S
N85          C86   1.356       .  A
C86          N87   1.357       .  A
C86         C830   1.465       .  S
C88          N89   1.356       .  A
C88          N93   1.363       .  A
C88         C616   1.481       .  S
N89          C90   1.350       .  A
C90          N91   1.355       .  A
C90         C851   1.460       .  S
N91          C92   1.359       .  A
C92          N93   1.363       .  A
C92         C138   1.469       .  S
N94          N95   1.319       .  A
N94         N100   1.317       .  A
N94        Mn123   2.207       .  S
N95         C102   1.351       .  A
N96          N98   1.316       .  A
N96          N97   1.320       .  A
N96        Mn112   2.188       .  S
N97         C103   1.351       .  A
N98          N99   1.320       .  A
N98        Mn123   2.209       .  S
N99         C103   1.352       .  A
N100        N101   1.322       .  A
N100       Mn112   2.199       .  S
N101        C102   1.351       .  A
N104        N110   1.316       .  A
N104        N105   1.321       .  A
N104       Mn134   2.211       .  S
N105        C113   1.353       .  A
N106        N107   1.321       .  A
N106        N108   1.316       .  A
N106       Mn112   2.190       .  S
N107        C114   1.350       .  A
N108        N109   1.320       .  A
N108       Mn134   2.212       .  S
N109        C114   1.353       .  A
N110        N111   1.322       .  A
N110       Mn112   2.204       .  S
N111        C113   1.352       .  A
Mn112      Cl136   2.570       .  S
N115        N116   1.319       .  A
N115        N121   1.317       .  A
N115       Mn123   2.205       .  S
N116        C124   1.351       .  A
N117        N119   1.317       .  A
N117        N118   1.323       .  A
N117       Mn135   2.202       .  S
N118        C125   1.352       .  A
N119        N120   1.321       .  A
N119       Mn123   2.216       .  S
N120        C125   1.353       .  A
N121        N122   1.321       .  A
N121       Mn135   2.194       .  S
N122        C124   1.351       .  A
Mn123      Cl136   2.521       .  S
N126        N127   1.320       .  A
N126        N132   1.317       .  A
N126       Mn134   2.207       .  S
N127        C137   1.352       .  A
N128        N129   1.322       .  A
N128        N130   1.317       .  A
N128       Mn135   2.202       .  S
N129        C138   1.352       .  A
N130        N131   1.320       .  A
N130       Mn134   2.210       .  S
N131        C138   1.352       .  A
N132        N133   1.320       .  A
N132       Mn135   2.193       .  S
N133        C137   1.350       .  A
Mn134      Cl136   2.523       .  S
Mn135      Cl136   2.569       .  S
N139        C144   1.355       .  A
N139        C143   1.355       .  A
N139        H171   1.033       .  S
N140        C147   1.351       .  A
N140        C148   1.352       .  A
N141        C146   1.353       .  A
N141        C145   1.354       .  A
N141        H172   1.031       .  S
N142        C149   1.351       .  A
N142        C150   1.352       .  A
C143        C151   1.388       .  A
C143        C159   1.421       .  A
C144        C160   1.421       .  A
C144        C152   1.388       .  A
C145        C153   1.389       .  A
C145        C162   1.421       .  A
C146        C161   1.419       .  A
C146        C154   1.388       .  A
C147        C159   1.415       .  A
C147        C155   1.387       .  A
C148        C162   1.414       .  A
C148        C156   1.386       .  A
C149        C157   1.387       .  A
C149        C160   1.415       .  A
C150        C158   1.385       .  A
C150        C161   1.414       .  A
C151        C152   1.374       .  A
C151        H163   1.082       .  S
C152        H164   1.082       .  S
C153        C154   1.370       .  A
C153        H165   1.082       .  S
C154        H166   1.082       .  S
C155        C156   1.376       .  A
C155        H167   1.082       .  S
C156        H168   1.082       .  S
C157        C158   1.376       .  A
C157        H965   1.082       .  S
C158        H966   1.082       .  S
C159        C595   1.485       .  S
C160        C568   1.485       .  S
C161        C667   1.484       .  S
C162        C739   1.485       .  S
H169        C953   1.082       .  S
H170        C954   1.082       .  S
N173        C178   1.356       .  A
N173        C177   1.353       .  A
N173        H205   1.033       .  S
N174        C181   1.348       .  A
N174        C182   1.350       .  A
N175        C180   1.351       .  A
N175        C179   1.353       .  A
N175        H206   1.035   1_556  S
N176        C183   1.350       .  A
N176        C184   1.350       .  A
C177        C185   1.387       .  A
C177        C193   1.419       .  A
C178        C194   1.422       .  A
C178        C186   1.388       .  A
C179        C187   1.387       .  A
C179        C196   1.413       .  A
C180        C195   1.415       .  A
C180        C188   1.389       .  A
C181        C193   1.411       .  A
C181       C1781   1.387   1_455  A
C182        C196   1.408   1_554  A
C182       C1782   1.384   1_455  A
C183        C191   1.387       .  A
C183        C194   1.414       .  A
C184        C192   1.385       .  A
C184        C195   1.410   1_554  A
C185        C186   1.374       .  A
C185        H197   1.082       .  S
C186        H198   1.082       .  S
C187        C188   1.368       .  A
C187        H199   1.082       .  S
C188        H200   1.082       .  S
C189        C190   1.376       .  A
C189       C1773   1.387       .  A
C189        H201   1.082       .  S
C190       C1774   1.384       .  A
C190        H202   1.082   1_554  S
C191        C192   1.377       .  A
C191        H203   1.082       .  S
C192        H204   1.082       .  S
C193        C715   1.479       .  S
C194        C688   1.487       .  S
C195        C523   1.477       .  S
C196        C547   1.479       .  S
N207        C212   1.353       .  A
N207        C211   1.354       .  A
N207        H239   1.035       .  S
N208        C215   1.351       .  A
N208        C216   1.351       .  A
N209        C214   1.353       .  A
N209        C213   1.352       .  A
N209        H240   1.033       .  S
N210        C217   1.349       .  A
N210        C218   1.350       .  A
C211        C219   1.389       .  A
C211        C227   1.420       .  A
C212        C228   1.417       .  A
C212        C220   1.387       .  A
C213        C221   1.388       .  A
C213        C230   1.418       .  A
C214        C229   1.420       .  A
C214        C222   1.390       .  A
C215        C227   1.415       .  A
C215        C223   1.387       .  A
C216        C230   1.413       .  A
C216        C224   1.385       .  A
C217        C228   1.412       .  A
C217       C1817   1.386   1_455  A
C218        C229   1.412       .  A
C218       C1818   1.386   1_455  A
C219        C220   1.373       .  A
C219        H231   1.081       .  S
C220        H232   1.082       .  S
C221        C222   1.369       .  A
C221        H233   1.082       .  S
C222        H234   1.081       .  S
C223        C224   1.376       .  A
C223        H235   1.082       .  S
C224        H236   1.082       .  S
C225        C226   1.376       .  A
C225       C1809   1.386       .  A
C225        H237   1.082       .  S
C226       C1810   1.386       .  A
C226        H238   1.082       .  S
C227        C640   1.486       .  S
C228        C787   1.480   1_455  S
C229        C499   1.480   1_455  S
C230        C475   1.482       .  S
N241        C246   1.352       .  A
N241        C245   1.355       .  A
N241        H273   1.035       .  S
N242        C249   1.349   1_554  A
N242        C250   1.349       .  A
N243        C248   1.354       .  A
N243        C247   1.351       .  A
N243        H274   1.036       .  S
N244        C251   1.348   1_554  A
N244        C252   1.351       .  A
C245        C253   1.389       .  A
C245        C261   1.422       .  A
C246        C262   1.419       .  A
C246        C254   1.388       .  A
C247        C255   1.387       .  A
C247        C264   1.415       .  A
C248        C263   1.418       .  A
C248        C256   1.389       .  A
C249        C261   1.412       .  A
C249       C1053   1.387   1_556  A
C250        C264   1.409       .  A
C250       C1054   1.385       .  A
C251        C259   1.387   1_556  A
C251        C262   1.411       .  A
C252        C260   1.385       .  A
C252        C263   1.410       .  A
C253        C254   1.373       .  A
C253        H265   1.082       .  S
C254        H266   1.082       .  S
C255        C256   1.368       .  A
C255        H267   1.082       .  S
C256        H268   1.080       .  S
C257        C258   1.375   1_545  A
C257       C1045   1.387   1_544  A
C257        H269   1.082   1_554  S
C258       C1046   1.385       .  A
C258        H270   1.082   1_565  S
C259        C260   1.375       .  A
C259        H271   1.082   1_554  S
C260        H272   1.082       .  S
C261        C427   1.484       .  S
C262        C448   1.476       .  S
C263        C763   1.483       .  S
C264        C619   1.478       .  S
C275        N276   1.358       .  A
C275        N280   1.361       .  A
C275        C451   1.480       .  S
N276        C277   1.352       .  A
C277        N278   1.355       .  A
C277        C331   1.460       .  S
N278        C279   1.357       .  A
C279        N280   1.359       .  A
C279       C1968   1.462       .  S
C281        N282   1.357       .  A
C281        N286   1.360       .  A
C281        C544   1.479       .  S
N282        C283   1.355       .  A
C283        N284   1.355       .  A
C283        C377   1.457       .  S
N284        C285   1.356       .  A
C285        N286   1.356       .  A
C285        C319   1.461       .  S
C287        N288   1.363       .  A
C287        N292   1.361       .  A
C287        C424   1.488       .  S
N288        C289   1.361       .  A
C289        N290   1.355       .  A
C289        C387   1.465       .  S
N290        C291   1.354       .  A
C291        N292   1.356       .  A
C291        C320   1.463       .  S
C293        N294   1.359       .  A
C293        N298   1.361       .  A
C293        C520   1.480       .  S
N294        C295   1.355       .  A
C295        N296   1.354       .  A
C295        C388   1.462       .  S
N296        C297   1.357       .  A
C297        N298   1.358       .  A
C297        C330   1.463       .  S
C299        N300   1.361       .  A
C299        N304   1.362       .  A
C299        C472   1.485       .  S
N300        C301   1.356       .  A
C301        N302   1.356       .  A
C301        C341   1.466       .  S
N302        C303   1.357       .  A
C303        N304   1.360       .  A
C303        C412   1.468       .  S
C305        N306   1.361       .  A
C305        N310   1.360       .  A
C305        C571   1.483       .  S
N306        C307   1.356       .  A
C307        N308   1.356       .  A
C307        C398   1.464       .  S
N308        C309   1.357       .  A
C309        N310   1.356       .  A
C309        C342   1.461       .  S
N311        N312   1.318       .  A
N311        N317   1.316       .  A
N311       Mn340   2.195       .  S
N312        C319   1.350       .  A
N313        N315   1.317       .  A
N313        N314   1.322       .  A
N313       Mn329   2.203       .  S
N314        C320   1.352       .  A
N315        N316   1.319       .  A
N315       Mn340   2.199       .  S
N316        C320   1.350       .  A
N317        N318   1.321       .  A
N317       Mn329   2.198       .  S
N318        C319   1.352       .  A
N321        N327   1.316       .  A
N321        N322   1.318       .  A
N321       Mn351   2.196       .  S
N322        C330   1.349       .  A
N323        N324   1.321       .  A
N323        N325   1.316       .  A
N323       Mn329   2.203       .  S
N324        C331   1.353       .  A
N325        N326   1.319       .  A
N325       Mn351   2.193       .  S
N326        C331   1.349       .  A
N327        N328   1.322       .  A
N327       Mn329   2.203       .  S
N328        C330   1.353       .  A
Mn329      Cl353   2.568       .  S
N332        N333   1.320       .  A
N332        N338   1.316       .  A
N332       Mn340   2.201       .  S
N333        C341   1.351       .  A
N334        N336   1.316       .  A
N334        N335   1.321       .  A
N334       Mn352   2.201       .  S
N335        C342   1.353       .  A
N336        N337   1.318       .  A
N336       Mn340   2.195       .  S
N337        C342   1.349       .  A
N338        N339   1.322       .  A
N338       Mn352   2.201       .  S
N339        C341   1.353       .  A
Mn340      Cl353   2.517       .  S
N343        N344   1.319       .  A
N343        N349   1.316       .  A
N343       Mn351   2.190       .  S
N344        C354   1.349       .  A
N345        N346   1.321       .  A
N345        N347   1.316       .  A
N345       Mn352   2.198       .  S
N346        C355   1.351       .  A
N347        N348   1.319       .  A
N347       Mn351   2.199       .  S
N348        C355   1.351       .  A
N349        N350   1.319       .  A
N349       Mn352   2.198       .  S
N350        C354   1.351       .  A
Mn351      Cl353   2.518       .  S
Mn352      Cl353   2.566       .  S
C354        C358   1.458       .  S
C355        C366   1.462       .  S
C356        N357   1.356       .  A
C356        N361   1.362       .  A
C356        C496   1.481       .  S
N357        C358   1.352       .  A
C358        N359   1.354       .  A
N359        C360   1.357       .  A
C360        N361   1.360       .  A
C360       C1991   1.462       .  S
C362        N363   1.362       .  A
C362        N367   1.361       .  A
C362        C592   1.487       .  S
N363        C364   1.358       .  A
C364        N365   1.355       .  A
C364        C411   1.464       .  S
N365        C366   1.355       .  A
C366        N367   1.358       .  A
N368        N374   1.316       .  A
N368       N1961   1.319   1_455  A
N368       Mn397   2.197       .  S
N369       C1968   1.350       .  A
N369       N1960   1.319       .  A
N370        N372   1.316       .  A
N370       N1167   1.320       .  A
N370       Mn386   2.194       .  S
N371       C1969   1.350   1_465  A
N371       N1166   1.318       .  A
N372       N1965   1.320   1_455  A
N372       Mn397   2.198       .  S
N373       C1173   1.351       .  A
N373       N1964   1.320       .  A
N374        N375   1.321       .  A
N374       Mn386   2.196       .  S
N375        C376   1.352   1_455  A
C376       N1961   1.350       .  A
C376       C1871   1.462       .  S
C377       N1963   1.350   1_545  A
C377       N1169   1.350   1_545  A
N378        N384   1.317       .  A
N378       N1175   1.320       .  A
N378       Mn408   2.212       .  S
N379        C387   1.352   1_565  A
N379       N1174   1.319       .  A
N380        N381   1.319       .  A
N380        N382   1.316       .  A
N380       Mn386   2.189       .  S
N381        C388   1.350       .  A
N382        N383   1.320       .  A
N382       Mn408   2.206       .  S
N383        C388   1.352       .  A
N384       N1181   1.322       .  A
N384       Mn386   2.198       .  S
N385        C387   1.352   1_565  A
N385       N1180   1.322       .  A
Mn386      Cl410   2.565       .  S
N389        N390   1.319       .  A
N389       N1987   1.317       .  A
N389      Mn1989   2.196       .  S
N390       C1194   1.349       .  A
N391        N393   1.316       .  A
N391        N392   1.322       .  A
N391       Mn409   2.195       .  S
N392        C399   1.352   1_455  A
N393       N1986   1.318   1_455  A
N393       Mn397   2.197       .  S
N394       C1991   1.350       .  A
N394       N1985   1.318       .  A
N395       N1981   1.317       .  A
N395       N1192   1.322       .  A
N395       Mn409   2.204       .  S
N396       C1990   1.352   1_465  A
N396       N1191   1.321       .  A
Mn397      N1981   2.196       .  S
Mn397      Cl410   2.518       .  S
C398       N1186   1.351   1_545  A
C398       N1988   1.352   1_545  A
C399       N1986   1.350       .  A
C399       C1952   1.462       .  S
N400        N401   1.320       .  A
N400        N406   1.316       .  A
N400       Mn408   2.208       .  S
N401        C411   1.352       .  A
N402        N404   1.317       .  A
N402       N1199   1.322       .  A
N402       Mn409   2.200       .  S
N403        C412   1.352   1_565  A
N403       N1198   1.322       .  A
N404       N1201   1.320       .  A
N404       Mn408   2.207       .  S
N405        C412   1.352       .  A
N405       N1200   1.320   1_545  A
N406        N407   1.321       .  A
N406       Mn409   2.197       .  S
N407        C411   1.351       .  A
Mn408      Cl410   2.522       .  S
Mn409      Cl410   2.569       .  S
C413        C414   1.397       .  A
C413        C418   1.402       .  A
C413        H429   1.084       .  S
C414        C415   1.403       .  A
C414        H430   1.084       .  S
C415        C425   1.400       .  A
C415        C416   1.410       .  A
C416        C422   1.412       .  A
C416        C417   1.412       .  A
C417        C418   1.412       .  A
C417       C1215   1.412       .  A
C418        C426   1.400       .  A
C419        C428   1.404       .  A
C419        C420   1.403       .  A
C419       C1213   1.413       .  A
C420        C421   1.400       .  A
C420        H431   1.084       .  S
C421       C1218   1.404       .  A
C421        H432   1.084       .  S
C422        C423   1.407       .  A
C422       C1217   1.405       .  A
C423        C424   1.410       .  A
C423        H433   1.084       .  S
C424        C425   1.409       .  A
C425        H434   1.084       .  S
C426       C1223   1.403   1_545  A
C426        H435   1.085       .  S
C427        C428   1.404       .  A
C427       C1222   1.404       .  A
C428        H436   1.084       .  S
C437        C438   1.400       .  A
C437        C442   1.404       .  A
C437        H453   1.084       .  S
C438        C439   1.404       .  A
C438        H454   1.084       .  S
C439        C449   1.403       .  A
C439        C440   1.412       .  A
C440        C446   1.413       .  A
C440        C441   1.409       .  A
C441        C443   1.410       .  A
C441        C442   1.412       .  A
C442        C450   1.405       .  A
C443        C452   1.396       .  A
C443        C444   1.403       .  A
C444        C445   1.395       .  A
C444        H455   1.084       .  S
C445        C446   1.401       .  A
C445        H456   1.084       .  S
C446        C447   1.397       .  A
C447        C448   1.400       .  A
C447        H457   1.085       .  S
C448        C449   1.403       .  A
C449        H458   1.084       .  S
C450        C451   1.408       .  A
C450        H459   1.084       .  S
C451        C452   1.407       .  A
C452        H460   1.084       .  S
C461        C462   1.398       .  A
C461        C466   1.403       .  A
C461        H477   1.084       .  S
C462        C463   1.403       .  A
C462        H478   1.084       .  S
C463        C473   1.401       .  A
C463        C464   1.411       .  A
C464        C470   1.412       .  A
C464        C465   1.412       .  A
C465        C467   1.412       .  A
C465        C466   1.412       .  A
C466        C474   1.401       .  A
C467        C476   1.404       .  A
C467        C468   1.403       .  A
C468        C469   1.400       .  A
C468        H479   1.084       .  S
C469        C470   1.404       .  A
C469        H480   1.084       .  S
C470        C471   1.405       .  A
C471        C472   1.409       .  A
C471        H481   1.084       .  S
C472        C473   1.408       .  A
C473        H482   1.084       .  S
C474        C475   1.403       .  A
C474        H483   1.085       .  S
C475        C476   1.404       .  A
C476        H484   1.084       .  S
C485        C486   1.398       .  A
C485        C490   1.403       .  A
C485        H501   1.084       .  S
C486       C2079   1.403   1_455  A
C486        H502   1.084       .  S
C487        C497   1.402       .  A
C487        C488   1.413       .  A
C487       C2078   1.403       .  A
C488        C494   1.409       .  A
C488        C489   1.410       .  A
C489        C491   1.413       .  A
C489       C2082   1.412       .  A
C490        C498   1.400       .  A
C490       C2081   1.412   1_455  A
C491        C500   1.402       .  A
C491        C492   1.403       .  A
C492        C493   1.398       .  A
C492        H503   1.084       .  S
C493        C494   1.404       .  A
C493        H504   1.084       .  S
C494        C495   1.399       .  A
C495        C496   1.410       .  A
C495        H505   1.084       .  S
C496        C497   1.406       .  A
C497        H506   1.084       .  S
C498        C499   1.402   1_455  A
C498        H507   1.084       .  S
C499       C2092   1.404       .  A
C500       C2091   1.404       .  A
C500        H508   1.084       .  S
C509        C510   1.397       .  A
C509        C514   1.403       .  A
C509        H525   1.084       .  S
C510        C511   1.403       .  A
C510        H526   1.084       .  S
C511        C521   1.400       .  A
C511        C512   1.411       .  A
C512        C518   1.412       .  A
C512        C513   1.410       .  A
C513        C515   1.413       .  A
C513        C514   1.412       .  A
C514        C522   1.399       .  A
C515        C524   1.402       .  A
C515        C516   1.403       .  A
C516        C517   1.399       .  A
C516        H527   1.084       .  S
C517        C518   1.404       .  A
C517        H528   1.084       .  S
C518        C519   1.403       .  A
C519        C520   1.407       .  A
C519        H529   1.084       .  S
C520        C521   1.407       .  A
C521        H530   1.084       .  S
C522        C523   1.403       .  A
C522        H531   1.085       .  S
C523        C524   1.403       .  A
C524        H532   1.084       .  S
C533        C534   1.399       .  A
C533        C538   1.404       .  A
C533        H549   1.084       .  S
C534        C535   1.404       .  A
C534        H550   1.084       .  S
C535        C545   1.402       .  A
C535        C536   1.411       .  A
C536        C542   1.411       .  A
C536        C537   1.410       .  A
C537        C539   1.412       .  A
C537        C538   1.413       .  A
C538       C2138   1.404       .  A
C539        C548   1.399       .  A
C539        C540   1.402       .  A
C540        C541   1.396       .  A
C540        H551   1.084       .  S
C541        C542   1.402       .  A
C541        H552   1.084       .  S
C542        C543   1.399       .  A
C543        C544   1.406       .  A
C543        H553   1.084       .  S
C544        C545   1.409       .  A
C545        H554   1.084       .  S
C546        C547   1.404       .  A
C546       C2130   1.404       .  A
C546        H555   1.084       .  S
C547       C2140   1.402   1_455  A
C548       C2139   1.402       .  A
C548        H556   1.085       .  S
C557        C558   1.400       .  A
C557        C562   1.404       .  A
C557        H573   1.084       .  S
C558        C559   1.404       .  A
C558        H574   1.084       .  S
C559        C560   1.412       .  A
C559       C1365   1.404       .  A
C560        C566   1.412   1_545  A
C560        C561   1.411       .  A
C561        C563   1.411       .  A
C561        C562   1.411       .  A
C562        C570   1.403       .  A
C563        C572   1.400       .  A
C563        C564   1.403   1_545  A
C564        C565   1.398       .  A
C564       H2167   1.084       .  S
C565        C566   1.403       .  A
C565        H576   1.084       .  S
C566       C1363   1.401       .  A
C567        C568   1.403       .  A
C567       C1362   1.402       .  A
C567        H577   1.084       .  S
C568        C569   1.404       .  A
C569       C1355   1.404       .  A
C569        H578   1.084       .  S
C570        C571   1.409       .  A
C570        H579   1.084       .  S
C571        C572   1.408       .  A
C572        H580   1.084       .  S
H575       C2156   1.084       .  S
C581        C582   1.399       .  A
C581        C586   1.404       .  A
C581        H597   1.084       .  S
C582        C583   1.404       .  A
C582        H598   1.084       .  S
C583        C593   1.404       .  A
C583        C584   1.411       .  A
C584        C590   1.411       .  A
C584        C585   1.413       .  A
C585        C587   1.413       .  A
C585        C586   1.412       .  A
C586        C594   1.403       .  A
C587        C596   1.404       .  A
C587        C588   1.403       .  A
C588        C589   1.399       .  A
C588        H599   1.083       .  S
C589        C590   1.404       .  A
C589        H600   1.084       .  S
C590        C591   1.403       .  A
C591        C592   1.408       .  A
C591        H601   1.084       .  S
C592        C593   1.410       .  A
C593        H602   1.084       .  S
C594        C595   1.404       .  A
C594        H603   1.084       .  S
C595        C596   1.404       .  A
C596        H604   1.084       .  S
C605        C606   1.396       .  A
C605        C610   1.402       .  A
C605        H621   1.084       .  S
C606        C607   1.403       .  A
C606        H622   1.084       .  S
C607        C617   1.397   1_565  A
C607        C608   1.409   1_565  A
C608        C614   1.413       .  A
C608        C609   1.410       .  A
C609        C611   1.412       .  A
C609        C610   1.413   1_545  A
C610        C618   1.399       .  A
C611        C612   1.403       .  A
C611       C1416   1.402       .  A
C612        C613   1.400       .  A
C612       H1419   1.084       .  S
C613        C614   1.404       .  A
C613        H624   1.083       .  S
C614        C615   1.406       .  A
C615        C616   1.407       .  A
C615        H625   1.084       .  S
C616        C617   1.408       .  A
C617        H626   1.084   1_545  S
C618       C1415   1.402       .  A
C618       H1423   1.085       .  S
C619        C620   1.404       .  A
C619       C1414   1.402       .  A
C620       C1407   1.404       .  A
C620        H628   1.084       .  S
H623       C1408   1.084       .  S
H627       C1414   1.085       .  S
C629        C630   1.400       .  A
C629        C634   1.405       .  A
C629        H645   1.084       .  S
C630        C631   1.404       .  A
C630        H646   1.084       .  S
C631        C641   1.405       .  A
C631        C632   1.413       .  A
C632        C638   1.412       .  A
C632        C633   1.413       .  A
C633        C635   1.412       .  A
C633        C634   1.410       .  A
C634        C642   1.404       .  A
C635        C644   1.404       .  A
C635        C636   1.404       .  A
C636        C637   1.399       .  A
C636        H647   1.084       .  S
C637        C638   1.403       .  A
C637        H648   1.084       .  S
C638        C639   1.402       .  A
C639        C640   1.403       .  A
C639        H649   1.084       .  S
C640        C641   1.405       .  A
C641        H650   1.084       .  S
C642        C643   1.411       .  A
C642        H651   1.084       .  S
C643        C644   1.409       .  A
C644        H652   1.084       .  S
C653        C654   1.398       .  A
C653        C658   1.403       .  A
C653        H669   1.084       .  S
C654       C1451   1.403       .  A
C654       H2262   1.084       .  S
C655        C665   1.401   1_565  A
C655        C656   1.411   1_565  A
C655       C1450   1.403       .  A
C656        C662   1.411       .  A
C656        C657   1.411       .  A
C657        C659   1.413       .  A
C657       C1454   1.412   1_545  A
C658        C666   1.400       .  A
C658       C1453   1.412       .  A
C659        C668   1.404       .  A
C659        C660   1.403       .  A
C660        C661   1.399       .  A
C660        H671   1.084       .  S
C661        C662   1.404       .  A
C661        H672   1.084       .  S
C662        C663   1.403       .  A
C663        C664   1.408       .  A
C663        H673   1.084       .  S
C664        C665   1.407       .  A
C665        H674   1.084   1_545  S
C666        C667   1.404       .  A
C666        H675   1.085       .  S
C667       C1464   1.405       .  A
C668       C1463   1.404   1_545  A
C668        H676   1.084       .  S
H670       C2246   1.084       .  S
C677        C678   1.401       .  A
C677        C682   1.405       .  A
C677        H693   1.084       .  S
C678        C679   1.404       .  A
C678        H694   1.084       .  S
C679        C689   1.405       .  A
C679        C680   1.413       .  A
C680        C686   1.412       .  A
C680        C681   1.413       .  A
C681        C683   1.411       .  A
C681        C682   1.411       .  A
C682        C690   1.405       .  A
C683        C692   1.402       .  A
C683        C684   1.403       .  A
C684        C685   1.398       .  A
C684        H695   1.084       .  S
C685        C686   1.403       .  A
C685        H696   1.083       .  S
C686        C687   1.403       .  A
C687        C688   1.403       .  A
C687        H697   1.084       .  S
C688        C689   1.406       .  A
C689        H698   1.084       .  S
C690        C691   1.411       .  A
C690        H699   1.084       .  S
C691        C692   1.407       .  A
C692        H700   1.084       .  S
C701        C702   1.398       .  A
C701        C706   1.402       .  A
C701        H717   1.084       .  S
C702        C703   1.404       .  A
C702        H718   1.084       .  S
C703        C713   1.402       .  A
C703        C704   1.411       .  A
C704        C710   1.411       .  A
C704        C705   1.411       .  A
C705        C706   1.412       .  A
C705       C2299   1.413       .  A
C706        C714   1.400       .  A
C707        C716   1.404       .  A
C707        C708   1.403       .  A
C707       C2297   1.413   1_455  A
C708        C709   1.399       .  A
C708        H719   1.084       .  S
C709       C2302   1.404   1_455  A
C709        H720   1.084       .  S
C710        C711   1.403       .  A
C710       C2301   1.404       .  A
C711        C712   1.409       .  A
C711        H721   1.084       .  S
C712        C713   1.409       .  A
C713        H722   1.084       .  S
C714       C2307   1.402       .  A
C714        H723   1.085       .  S
C715        C716   1.403       .  A
C715       C2306   1.402   1_455  A
C716        H724   1.084       .  S
C725        C726   1.398       .  A
C725        C730   1.403       .  A
C725        H741   1.084       .  S
C726        C727   1.404       .  A
C726        H742   1.084       .  S
C727        C737   1.401       .  A
C727        C728   1.410       .  A
C728        C734   1.412       .  A
C728        C729   1.413       .  A
C729        C731   1.412       .  A
C729        C730   1.413       .  A
C730        C738   1.403       .  A
C731        C740   1.403       .  A
C731        C732   1.404       .  A
C732        C733   1.400       .  A
C732        H743   1.084       .  S
C733        C734   1.404       .  A
C733        H744   1.084       .  S
C734        C735   1.406       .  A
C735        C736   1.409       .  A
C735        H745   1.084       .  S
C736        C737   1.410       .  A
C737        H746   1.084       .  S
C738        C739   1.404       .  A
C738        H747   1.084       .  S
C739        C740   1.404       .  A
C740        H748   1.084       .  S
C749        C750   1.399       .  A
C749        C754   1.403       .  A
C749        H765   1.084       .  S
C750        C751   1.405       .  A
C750        H766   1.084       .  S
C751        C761   1.401       .  A
C751        C752   1.409       .  A
C752        C758   1.413       .  A
C752        C753   1.412       .  A
C753        C755   1.412       .  A
C753        C754   1.413       .  A
C754        C762   1.403       .  A
C755        C764   1.402       .  A
C755        C756   1.403       .  A
C756        C757   1.399       .  A
C756        H767   1.083       .  S
C757        C758   1.403       .  A
C757        H768   1.083       .  S
C758        C759   1.405       .  A
C759        C760   1.407       .  A
C759        H769   1.084       .  S
C760        C761   1.411       .  A
C761        H770   1.084       .  S
C762        C763   1.404       .  A
C762        H771   1.084       .  S
C763        C764   1.403       .  A
C764        H772   1.084       .  S
C773        C774   1.398       .  A
C773        C778   1.403       .  A
C773        H789   1.084       .  S
C774       C2367   1.404   1_455  A
C774        H790   1.084       .  S
C775        C785   1.401       .  A
C775        C776   1.410       .  A
C775       C2366   1.404       .  A
C776        C782   1.412       .  A
C776        C777   1.411       .  A
C777        C779   1.413       .  A
C777       C2370   1.412       .  A
C778        C786   1.401       .  A
C778       C2369   1.412   1_455  A
C779        C788   1.403       .  A
C779        C780   1.403       .  A
C780        C781   1.399       .  A
C780        H791   1.083       .  S
C781        C782   1.404       .  A
C781        H792   1.084       .  S
C782        C783   1.404       .  A
C783        C784   1.407       .  A
C783        H793   1.084       .  S
C784        C785   1.409       .  A
C785        H794   1.084       .  S
C786        C787   1.403   1_455  A
C786        H795   1.085       .  S
C787       C2380   1.403       .  A
C788       C2379   1.403       .  A
C788        H796   1.084       .  S
C797        N798   1.361       .  A
C797        N802   1.361       .  A
C797       C1580   1.484       .  S
N798        C799   1.357       .  A
C799        N800   1.354       .  A
C799        C841   1.462       .  S
N800        C801   1.355       .  A
C801        N802   1.358       .  A
C801        C898   1.461       .  S
C803        N804   1.365       .  A
C803        N808   1.361       .  A
C803       C1556   1.488       .  S
N804        C805   1.361       .  A
C805        N806   1.355       .  A
C805        C921   1.472       .  S
N806       C2399   1.356       .  A
C807       N2398   1.356       .  A
C807       N2400   1.356       .  A
C807       C2456   1.464       .  S
N808       C2399   1.356       .  A
C809        N810   1.362       .  A
C809        N814   1.359       .  A
C809       C1532   1.487       .  S
N810        C811   1.359       .  A
C811        N812   1.357       .  A
C811        C910   1.468       .  S
N812        C813   1.357       .  A
C813        N814   1.357       .  A
C813        C840   1.464       .  S
C815        N816   1.361       .  A
C815        N820   1.363       .  A
C815       C1508   1.488       .  S
N816        C817   1.357       .  A
C817        N818   1.355       .  A
C817        C920   1.463       .  S
N818        C819   1.356       .  A
C819        N820   1.359       .  A
C819       C1648   1.466       .  S
N821        N827   1.315       .  A
N821       Mn850   2.195       .  S
N822        C829   1.352       .  A
N823        N825   1.316       .  A
N823        N824   1.322       .  A
N823       Mn839   2.201       .  S
N824        C830   1.353   1_565  A
N825       Mn850   2.201       .  S
N827        N828   1.320   1_455  A
N827       Mn839   2.194       .  S
C829        C874   1.465       .  S
N831        N837   1.316       .  A
N831        N832   1.320       .  A
N831       Mn861   2.200       .  S
N832        C840   1.351       .  A
N833        N834   1.321       .  A
N833        N835   1.316       .  A
N833       Mn839   2.194       .  S
N834       C2433   1.351   1_455  A
N835        N836   1.319   1_455  A
N835       Mn861   2.204       .  S
N836       C2433   1.351       .  A
N837        N838   1.320       .  A
N837       Mn839   2.196       .  S
N838        C840   1.352       .  A
Mn839      Cl863   2.567       .  S
C841       N2426   1.351       .  A
C841       N2428   1.351       .  A
N842        N843   1.319   1_565  A
N842        N848   1.316       .  A
N842       Mn850   2.189       .  S
N843        C851   1.349       .  A
N844        N846   1.318       .  A
N844        N845   1.323       .  A
N844       Mn862   2.207       .  S
N845        C852   1.353   1_465  A
N846       Mn850   2.198       .  S
N848        N849   1.319       .  A
N848       Mn862   2.201       .  S
N849        C851   1.353   1_565  A
Mn850      Cl863   2.517       .  S
C852       C1615   1.462       .  S
N853        N854   1.318       .  A
N853        N859   1.317       .  A
N853       Mn861   2.197       .  S
N854       C2456   1.348   1_455  A
N855        N856   1.323       .  A
N855        N857   1.317       .  A
N855       Mn862   2.205       .  S
N856        C865   1.354       .  A
N857        N858   1.318       .  A
N857       Mn861   2.199       .  S
N858        C865   1.350       .  A
N859        N860   1.323       .  A
N859       Mn862   2.206       .  S
N860       C2456   1.354   1_455  A
Mn861      Cl863   2.515       .  S
Mn862      Cl863   2.571       .  S
C864       N2446   1.348       .  A
C864       N2452   1.354       .  A
C864       C2399   1.464       .  S
C865        C868   1.465       .  S
C866        N867   1.362       .  A
C866        N871   1.359       .  A
C866       C1487   1.486       .  S
N867        C868   1.358       .  A
C868        N869   1.357       .  A
N869        C870   1.356       .  A
C870        N871   1.356       .  A
C870        C933   1.463       .  S
C872        N873   1.360       .  A
C872        N877   1.360       .  A
C872       C1460   1.484       .  S
N873       C2466   1.358       .  A
C874       N2465   1.357       .  A
C874       N2467   1.356       .  A
N875       C2466   1.356       .  A
N875        C876   1.356       .  A
C876        N877   1.358       .  A
C876        C899   1.464       .  S
C878        N879   1.364       .  A
C878        N883   1.361       .  A
C878       C1439   1.490       .  S
N879        C880   1.360       .  A
C880        N881   1.357       .  A
C880        C909   1.470       .  S
N881        C882   1.356       .  A
C882        N883   1.357       .  A
C884        N885   1.358       .  A
C884        N889   1.361       .  A
C884       C1412   1.480       .  S
N885        C886   1.354       .  A
C886        N887   1.356       .  A
N887        C888   1.357       .  A
C888        N889   1.360       .  A
C888        C934   1.466       .  S
N890        N891   1.318       .  A
N890        N896   1.318       .  A
N890       Mn919   2.202       .  S
N891        C898   1.350       .  A
N892        N894   1.316       .  A
N892        N893   1.320       .  A
N892       Mn908   2.193       .  S
N893        C899   1.351       .  A
N894        N895   1.320       .  A
N894       Mn919   2.206       .  S
N895        C899   1.352       .  A
N896        N897   1.322       .  A
N896       Mn908   2.203       .  S
N897        C898   1.352       .  A
N900        N906   1.317       .  A
N900        N901   1.320       .  A
N900       Mn930   2.210       .  S
N901        C909   1.352       .  A
N902        N903   1.322       .  A
N902        N904   1.316       .  A
N902       Mn908   2.200       .  S
N903        C910   1.353       .  A
N904        N905   1.320       .  A
N904       Mn930   2.207       .  S
N905        C910   1.352       .  A
N906        N907   1.323       .  A
N906       Mn908   2.207       .  S
N907        C909   1.353       .  A
Mn908      Cl932   2.568       .  S
N911        N912   1.320       .  A
N911        N917   1.316       .  A
N911       Mn919   2.202       .  S
N912        C920   1.351       .  A
N913        N915   1.317       .  A
N913        N914   1.323       .  A
N913       Mn931   2.200       .  S
N914        C921   1.352       .  A
N915        N916   1.322       .  A
N915       Mn919   2.216       .  S
N916        C921   1.353       .  A
N917        N918   1.321       .  A
N917       Mn931   2.198       .  S
N918        C920   1.351       .  A
Mn919      Cl932   2.524       .  S
N922        N923   1.321       .  A
N922        N928   1.317       .  A
N922       Mn930   2.208       .  S
N923        C933   1.352       .  A
N924        N925   1.321       .  A
N924        N926   1.316       .  A
N924       Mn931   2.196       .  S
N925        C934   1.351       .  A
N926        N927   1.320       .  A
N926       Mn930   2.206       .  S
N927        C934   1.352       .  A
N928        N929   1.320       .  A
N928       Mn931   2.199       .  S
N929        C933   1.351       .  A
Mn930      Cl932   2.526       .  S
Mn931      Cl932   2.566       .  S
N935        C940   1.354       .  A
N935        C939   1.353       .  A
N935        H967   1.034       .  S
N936        C943   1.350       .  A
N936        C944   1.351       .  A
N937        C942   1.352       .  A
N937        C941   1.354       .  A
N937        H968   1.033       .  S
N938        C945   1.350       .  A
N938        C946   1.351       .  A
C939        C947   1.388       .  A
C939        C955   1.419       .  A
C940        C956   1.419       .  A
C940        C948   1.388       .  A
C941        C949   1.388       .  A
C941        C958   1.418       .  A
C942        C957   1.418       .  A
C942        C950   1.389       .  A
C943        C955   1.413       .  A
C943        C951   1.387       .  A
C944        C958   1.412       .  A
C944        C952   1.385       .  A
C945        C953   1.387   1_565  A
C945        C956   1.413       .  A
C946        C954   1.385   1_565  A
C946        C957   1.412       .  A
C947        C948   1.373       .  A
C947        H959   1.082       .  S
C948        H960   1.082       .  S
C949        C950   1.368       .  A
C949        H961   1.082       .  S
C950        H962   1.082       .  S
C951        C952   1.376       .  A
C951        H963   1.082       .  S
C952        H964   1.082       .  S
C953        C954   1.377       .  A
C955       C1391   1.481       .  S
C956       C1364   1.483   1_565  S
C957       C1463   1.480       .  S
C958       C1535   1.484       .  S
N969        C974   1.355       .  A
N969        C973   1.354       .  A
N969       H1001   1.035       .  S
N970        C977   1.349       .  A
N970        C978   1.349       .  A
N971        C976   1.351       .  A
N971        C975   1.352       .  A
N971       H1002   1.035   1_556  S
N972        C979   1.349       .  A
N972        C980   1.350       .  A
C973        C981   1.386       .  A
C973        C989   1.417       .  A
C974        C990   1.421       .  A
C974        C982   1.389       .  A
C975        C983   1.388       .  A
C975        C992   1.414       .  A
C976        C991   1.415       .  A
C976        C984   1.389       .  A
C977        C989   1.410       .  A
C977       C2577   1.386   1_455  A
C978        C992   1.408   1_554  A
C978       C2578   1.385   1_455  A
C979        C987   1.388       .  A
C979        C990   1.413       .  A
C980        C988   1.385       .  A
C980        C991   1.409   1_554  A
C981        C982   1.374       .  A
C981        H993   1.082       .  S
C982        H994   1.081       .  S
C983        C984   1.369       .  A
C983        H995   1.082       .  S
C984        H996   1.082       .  S
C985       C2569   1.386       .  A
C985        C986   1.376       .  A
C985        H997   1.082       .  S
C986       C2570   1.385       .  A
C986        H998   1.082   1_554  S
C987        C988   1.377       .  A
C987        H999   1.082       .  S
C988       H1000   1.082       .  S
C989       C1511   1.483       .  S
C990       C1484   1.484       .  S
C991       C1319   1.478       .  S
C992       C1343   1.478       .  S
N1003      C1008   1.354       .  A
N1003      C1007   1.356       .  A
N1003      H1035   1.032       .  S
N1004      C1011   1.351       .  A
N1004      C1012   1.351       .  A
N1005      C1010   1.354       .  A
N1005      C1009   1.352       .  A
N1005      H1036   1.034       .  S
N1006      C1013   1.348       .  A
N1006      C1014   1.350       .  A
C1007      C1015   1.389       .  A
C1007      C1023   1.423       .  A
C1008      C1024   1.420       .  A
C1008      C1016   1.387       .  A
C1009      C1017   1.387       .  A
C1009      C1026   1.416       .  A
C1010      C1025   1.418       .  A
C1010      C1018   1.389       .  A
C1011      C1023   1.416       .  A
C1011      C1019   1.387       .  A
C1012      C1026   1.412       .  A
C1012      C1020   1.385       .  A
C1013      C2613   1.388   1_455  A
C1013      C1024   1.411       .  A
C1014      C2614   1.385   1_455  A
C1014      C1025   1.409       .  A
C1015      C1016   1.375       .  A
C1015      H1027   1.082       .  S
C1016      H1028   1.082       .  S
C1017      C1018   1.368       .  A
C1017      H1029   1.082       .  S
C1018      H1030   1.081       .  S
C1019      C1020   1.377       .  A
C1019      H1031   1.082       .  S
C1020      H1032   1.082       .  S
C1021      C2605   1.388       .  A
C1021      C1022   1.375       .  A
C1021      H1033   1.082       .  S
C1022      C2606   1.385       .  A
C1022      H1034   1.082       .  S
C1023      C1436   1.488       .  S
C1024      C1583   1.479   1_455  S
C1025      C1295   1.480   1_455  S
C1026      C1271   1.482       .  S
N1037      C1042   1.355       .  A
N1037      C1041   1.356       .  A
N1037      H1069   1.029       .  S
N1038      C1045   1.349   1_554  A
N1038      C1046   1.348       .  A
N1039      C1044   1.357       .  A
N1039      C1043   1.354       .  A
N1039      H1070   1.036       .  S
N1040      C1047   1.347   1_554  A
N1040      C1048   1.349       .  A
C1041      C1049   1.388       .  A
C1041      C1057   1.425       .  A
C1042      C1058   1.424       .  A
C1042      C1050   1.388       .  A
C1043      C1051   1.389       .  A
C1043      C1060   1.419       .  A
C1044      C1059   1.418       .  A
C1044      C1052   1.387       .  A
C1045      C1057   1.415       .  A
C1046      C1060   1.410       .  A
C1047      C1055   1.388   1_556  A
C1047      C1058   1.413       .  A
C1048      C1056   1.384       .  A
C1048      C1059   1.408       .  A
C1049      C1050   1.372       .  A
C1049      H1061   1.082       .  S
C1050      H1062   1.082       .  S
C1051      C1052   1.366       .  A
C1051      H1063   1.082       .  S
C1052      H1064   1.082       .  S
C1053      C1054   1.376       .  A
C1053      H1065   1.082   1_554  S
C1054      H1066   1.082       .  S
C1055      C1056   1.374       .  A
C1055      H1067   1.082   1_554  S
C1056      H1068   1.082       .  S
C1057      C1223   1.487       .  S
C1058      C1244   1.479       .  S
C1059      C1559   1.483       .  S
C1060      C1415   1.479       .  S
C1071      N1072   1.360       .  A
C1071      N1076   1.361       .  A
C1071      C1247   1.483       .  S
N1072      C1073   1.354       .  A
C1073      N1074   1.357       .  A
C1073      C1127   1.463       .  S
N1074      C1075   1.357       .  A
C1075      N1076   1.359       .  A
C1075      C2764   1.464       .  S
C1077      N1078   1.358       .  A
C1077      N1082   1.359       .  A
C1077      C1340   1.480       .  S
N1078      C1079   1.356       .  A
C1079      N1080   1.357       .  A
C1079      C1173   1.461       .  S
N1080      C1081   1.357       .  A
C1081      N1082   1.356       .  A
C1081      C1115   1.463       .  S
C1083      N1084   1.363       .  A
C1083      N1088   1.363       .  A
C1083      C1220   1.488       .  S
N1084      C1085   1.359       .  A
C1085      N1086   1.354       .  A
C1085      C1183   1.466       .  S
N1086      C1087   1.355       .  A
C1087      N1088   1.358       .  A
C1087      C1116   1.464       .  S
C1089      N1090   1.360       .  A
C1089      N1094   1.359       .  A
C1089      C1316   1.480       .  S
N1090      C1091   1.357       .  A
C1091      N1092   1.355       .  A
C1091      C1184   1.465       .  S
N1092      C1093   1.357       .  A
C1093      N1094   1.356       .  A
C1093      C1126   1.461       .  S
C1095      N1096   1.361       .  A
C1095      N1100   1.362       .  A
C1095      C1268   1.484       .  S
N1096      C1097   1.357       .  A
C1097      N1098   1.355       .  A
C1097      C1137   1.464       .  S
N1098      C1099   1.355       .  A
C1099      N1100   1.359       .  A
C1099      C1208   1.465       .  S
C1101      N1102   1.361       .  A
C1101      N1106   1.359       .  A
C1101      C1367   1.483       .  S
N1102      C1103   1.357       .  A
C1103      N1104   1.356       .  A
C1103      C1194   1.462       .  S
N1104      C1105   1.355       .  A
C1105      N1106   1.356       .  A
C1105      C1138   1.460       .  S
N1107      N1108   1.319       .  A
N1107      N1113   1.316       .  A
N1107     Mn1136   2.196       .  S
N1108      C1115   1.350       .  A
N1109      N1111   1.317       .  A
N1109      N1110   1.324       .  A
N1109     Mn1125   2.211       .  S
N1110      C1116   1.354       .  A
N1111      N1112   1.318       .  A
N1111     Mn1136   2.195       .  S
N1112      C1116   1.348       .  A
N1113      N1114   1.321       .  A
N1113     Mn1125   2.202       .  S
N1114      C1115   1.353       .  A
N1117      N1123   1.316       .  A
N1117      N1118   1.318       .  A
N1117     Mn1147   2.192       .  S
N1118      C1126   1.348       .  A
N1119      N1120   1.323       .  A
N1119      N1121   1.316       .  A
N1119     Mn1125   2.212       .  S
N1120      C1127   1.355       .  A
N1121      N1122   1.318       .  A
N1121     Mn1147   2.189       .  S
N1122      C1127   1.348       .  A
N1123      N1124   1.321       .  A
N1123     Mn1125   2.202       .  S
N1124      C1126   1.353       .  A
Mn1125    Cl1149   2.572       .  S
N1128      N1129   1.319       .  A
N1128      N1134   1.316       .  A
N1128     Mn1136   2.200       .  S
N1129      C1137   1.350       .  A
N1130      N1132   1.316       .  A
N1130      N1131   1.320       .  A
N1130     Mn1148   2.197       .  S
N1131      C1138   1.352       .  A
N1132      N1133   1.319       .  A
N1132     Mn1136   2.194       .  S
N1133      C1138   1.349       .  A
N1134      N1135   1.321       .  A
N1134     Mn1148   2.198       .  S
N1135      C1137   1.352       .  A
Mn1136    Cl1149   2.513       .  S
N1139      N1140   1.319       .  A
N1139      N1145   1.316       .  A
N1139     Mn1147   2.193       .  S
N1140      C1150   1.350       .  A
N1141      N1142   1.320       .  A
N1141      N1143   1.316       .  A
N1141     Mn1148   2.195       .  S
N1142      C1151   1.351       .  A
N1143      N1144   1.319       .  A
N1143     Mn1147   2.197       .  S
N1144      C1151   1.351       .  A
N1145      N1146   1.320       .  A
N1145     Mn1148   2.200       .  S
N1146      C1150   1.352       .  A
Mn1147    Cl1149   2.514       .  S
Mn1148    Cl1149   2.566       .  S
C1150      C1154   1.462       .  S
C1151      C1162   1.460       .  S
C1152      N1153   1.358       .  A
C1152      N1157   1.362       .  A
C1152      C1292   1.482       .  S
N1153      C1154   1.354       .  A
C1154      N1155   1.356       .  A
N1155      C1156   1.357       .  A
C1156      N1157   1.359       .  A
C1156      C2787   1.465       .  S
C1158      N1159   1.360       .  A
C1158      N1163   1.360       .  A
C1158      C1388   1.484       .  S
N1159      C1160   1.356       .  A
C1160      N1161   1.355       .  A
C1160      C1207   1.459       .  S
N1161      C1162   1.355       .  A
C1162      N1163   1.357       .  A
N1164      N2757   1.320   1_455  A
N1164      N1170   1.316       .  A
N1164     Mn1193   2.204       .  S
N1165      C2764   1.352       .  A
N1165      N2756   1.320       .  A
N1166      N1168   1.315       .  A
N1166     Mn1182   2.188       .  S
N1167      C2765   1.351   1_455  A
N1168      N2761   1.319   1_455  A
N1168     Mn1193   2.194       .  S
N1169      N2760   1.319       .  A
N1170      N1171   1.321       .  A
N1170     Mn1182   2.199       .  S
N1171      C1172   1.351   1_455  A
C1172      N2757   1.352       .  A
C1172      C2667   1.464       .  S
C1173      N2759   1.351       .  A
N1174      N1180   1.317       .  A
N1174     Mn1204   2.206       .  S
N1175      C1183   1.352       .  A
N1176      N1177   1.320       .  A
N1176      N1178   1.316       .  A
N1176     Mn1182   2.190       .  S
N1177      C1184   1.351       .  A
N1178      N1179   1.321       .  A
N1178     Mn1204   2.209       .  S
N1179      C1184   1.353       .  A
N1180     Mn1182   2.201       .  S
N1181      C1183   1.351       .  A
Mn1182    Cl1206   2.564       .  S
N1185      N1186   1.320       .  A
N1185      N2783   1.316       .  A
N1185     Mn2785   2.204       .  S
N1187      N1189   1.316       .  A
N1187      N1188   1.322       .  A
N1187     Mn1205   2.204       .  S
N1188      C1195   1.353   1_455  A
N1189      N2782   1.319   1_455  A
N1189     Mn1193   2.196       .  S
N1190      C2787   1.350       .  A
N1190      N2781   1.319       .  A
N1191      N2777   1.316       .  A
N1191     Mn1205   2.200       .  S
N1192      C2786   1.353   1_455  A
Mn1193     N2777   2.204       .  S
Mn1193    Cl1206   2.521       .  S
C1194      N2784   1.353       .  A
C1195      N2782   1.350       .  A
C1195      C2748   1.465       .  S
N1196      N1197   1.318       .  A
N1196      N1202   1.317       .  A
N1196     Mn1204   2.200       .  S
N1197      C1207   1.350       .  A
N1198      N1200   1.317       .  A
N1198     Mn1205   2.202       .  S
N1199      C1208   1.352       .  A
N1200     Mn1204   2.209       .  S
N1201      C1208   1.351       .  A
N1202      N1203   1.320       .  A
N1202     Mn1205   2.197       .  S
N1203      C1207   1.352       .  A
Mn1204    Cl1206   2.521       .  S
Mn1205    Cl1206   2.569       .  S
C1209      C1210   1.398       .  A
C1209      C1214   1.403       .  A
C1209      H1225   1.084       .  S
C1210      C1211   1.404       .  A
C1210      H1226   1.084       .  S
C1211      C1221   1.403       .  A
C1211      C1212   1.411       .  A
C1212      C1218   1.411       .  A
C1212      C1213   1.412       .  A
C1213      C1214   1.412       .  A
C1214      C1222   1.402       .  A
C1215      C1224   1.406   1_545  A
C1215      C1216   1.404   1_545  A
C1216      C1217   1.401   1_565  A
C1216      H1227   1.084       .  S
C1217      H1228   1.084   1_545  S
C1218      C1219   1.404       .  A
C1219      C1220   1.409       .  A
C1219      H1229   1.084       .  S
C1220      C1221   1.409       .  A
C1221      H1230   1.084       .  S
C1222      H1231   1.084       .  S
C1223      C1224   1.406       .  A
C1224      H1232   1.084       .  S
C1233      C1234   1.400       .  A
C1233      C1238   1.404       .  A
C1233      H1249   1.084       .  S
C1234      C1235   1.404       .  A
C1234      H1250   1.084       .  S
C1235      C1245   1.403       .  A
C1235      C1236   1.412       .  A
C1236      C1242   1.413       .  A
C1236      C1237   1.410       .  A
C1237      C1239   1.410       .  A
C1237      C1238   1.412       .  A
C1238      C1246   1.405       .  A
C1239      C1248   1.397       .  A
C1239      C1240   1.403       .  A
C1240      C1241   1.396       .  A
C1240      H1251   1.084       .  S
C1241      C1242   1.402       .  A
C1241      H1252   1.084       .  S
C1242      C1243   1.399       .  A
C1243      C1244   1.401       .  A
C1243      H1253   1.085       .  S
C1244      C1245   1.403       .  A
C1245      H1254   1.084       .  S
C1246      C1247   1.409       .  A
C1246      H1255   1.084       .  S
C1247      C1248   1.408       .  A
C1248      H1256   1.084       .  S
C1257      C1258   1.398       .  A
C1257      C1262   1.403       .  A
C1257      H1273   1.084       .  S
C1258      C1259   1.403       .  A
C1258      H1274   1.084       .  S
C1259      C1269   1.402       .  A
C1259      C1260   1.411       .  A
C1260      C1266   1.411       .  A
C1260      C1261   1.412       .  A
C1261      C1263   1.413       .  A
C1261      C1262   1.412       .  A
C1262      C1270   1.401       .  A
C1263      C1272   1.404       .  A
C1263      C1264   1.403       .  A
C1264      C1265   1.400       .  A
C1264      H1275   1.084       .  S
C1265      C1266   1.404       .  A
C1265      H1276   1.084       .  S
C1266      C1267   1.404       .  A
C1267      C1268   1.409       .  A
C1267      H1277   1.084       .  S
C1268      C1269   1.408       .  A
C1269      H1278   1.084       .  S
C1270      C1271   1.404       .  A
C1270      H1279   1.085       .  S
C1271      C1272   1.404       .  A
C1272      H1280   1.084       .  S
C1281      C1282   1.398       .  A
C1281      C1286   1.403       .  A
C1281      H1297   1.084       .  S
C1282      C2875   1.403   1_455  A
C1282      H1298   1.084       .  S
C1283      C2874   1.403       .  A
C1283      C1293   1.402       .  A
C1283      C1284   1.412       .  A
C1284      C1290   1.410       .  A
C1284      C1285   1.410       .  A
C1285      C1287   1.413       .  A
C1285      C2878   1.412       .  A
C1286      C2877   1.412   1_455  A
C1286      C1294   1.400       .  A
C1287      C1296   1.402       .  A
C1287      C1288   1.403       .  A
C1288      C1289   1.398       .  A
C1288      H1299   1.084       .  S
C1289      C1290   1.404       .  A
C1289      H1300   1.084       .  S
C1290      C1291   1.400       .  A
C1291      C1292   1.409       .  A
C1291      H1301   1.084       .  S
C1292      C1293   1.407       .  A
C1293      H1302   1.084       .  S
C1294      C1295   1.402   1_455  A
C1294      H1303   1.085       .  S
C1295      C2888   1.404       .  A
C1296      C2887   1.404       .  A
C1296      H1304   1.084       .  S
C1305      C1306   1.397       .  A
C1305      C1310   1.403       .  A
C1305      H1321   1.084       .  S
C1306      C1307   1.403       .  A
C1306      H1322   1.084       .  S
C1307      C1317   1.400       .  A
C1307      C1308   1.411       .  A
C1308      C1314   1.411       .  A
C1308      C1309   1.410       .  A
C1309      C1311   1.413       .  A
C1309      C1310   1.412       .  A
C1310      C1318   1.400       .  A
C1311      C1320   1.402       .  A
C1311      C1312   1.403       .  A
C1312      C1313   1.399       .  A
C1312      H1323   1.084       .  S
C1313      C1314   1.404       .  A
C1313      H1324   1.084       .  S
C1314      C1315   1.402       .  A
C1315      C1316   1.408       .  A
C1315      H1325   1.084       .  S
C1316      C1317   1.406       .  A
C1317      H1326   1.084       .  S
C1318      C1319   1.403       .  A
C1318      H1327   1.085       .  S
C1319      C1320   1.403       .  A
C1320      H1328   1.084       .  S
C1329      C1330   1.399       .  A
C1329      C1334   1.404       .  A
C1329      H1345   1.084       .  S
C1330      C1331   1.404       .  A
C1330      H1346   1.084       .  S
C1331      C1341   1.402       .  A
C1331      C1332   1.411       .  A
C1332      C1338   1.411       .  A
C1332      C1333   1.410       .  A
C1333      C1335   1.412       .  A
C1333      C1334   1.413       .  A
C1334      C2934   1.403       .  A
C1335      C1344   1.398       .  A
C1335      C1336   1.402       .  A
C1336      C1337   1.396       .  A
C1336      H1347   1.084       .  S
C1337      C1338   1.402       .  A
C1337      H1348   1.084       .  S
C1338      C1339   1.399       .  A
C1339      C1340   1.406       .  A
C1339      H1349   1.084       .  S
C1340      C1341   1.409       .  A
C1341      H1350   1.084       .  S
C1342      C2926   1.403       .  A
C1342      C1343   1.404       .  A
C1342      H1351   1.084       .  S
C1343      C2936   1.401   1_455  A
C1344      C2935   1.401       .  A
C1344      H1352   1.085       .  S
C1353      C1354   1.399       .  A
C1353      C1358   1.404       .  A
C1353      H1369   1.084       .  S
C1354      C1355   1.403       .  A
C1354      H1370   1.083       .  S
C1355      C1356   1.413       .  A
C1356      C1362   1.412       .  A
C1356      C1357   1.411       .  A
C1357      C1359   1.411       .  A
C1357      C1358   1.411       .  A
C1358      C1366   1.402       .  A
C1359      C1368   1.401       .  A
C1359      C1360   1.403       .  A
C1360      C1361   1.398       .  A
C1360      H2963   1.084       .  S
C1361      C1362   1.403       .  A
C1361      H1372   1.083       .  S
C1363      C1364   1.402   1_565  A
C1363      H1373   1.084       .  S
C1364      C1365   1.404       .  A
C1365      H1374   1.084       .  S
C1366      C1367   1.409       .  A
C1366      H1375   1.084       .  S
C1367      C1368   1.408       .  A
C1368      H1376   1.084       .  S
H1371      C2952   1.084       .  S
C1377      C1378   1.399       .  A
C1377      C1382   1.403       .  A
C1377      H1393   1.084       .  S
C1378      C1379   1.404       .  A
C1378      H1394   1.084       .  S
C1379      C1389   1.403       .  A
C1379      C1380   1.411       .  A
C1380      C1386   1.411       .  A
C1380      C1381   1.411       .  A
C1381      C1383   1.413       .  A
C1381      C1382   1.412       .  A
C1382      C1390   1.402       .  A
C1383      C1392   1.402       .  A
C1383      C1384   1.403       .  A
C1384      C1385   1.398       .  A
C1384      H1395   1.084       .  S
C1385      C1386   1.403       .  A
C1385      H1396   1.084       .  S
C1386      C1387   1.401       .  A
C1387      C1388   1.408       .  A
C1387      H1397   1.084       .  S
C1388      C1389   1.409       .  A
C1389      H1398   1.084       .  S
C1390      C1391   1.403       .  A
C1390      H1399   1.084       .  S
C1391      C1392   1.403       .  A
C1392      H1400   1.084       .  S
C1401      C1402   1.396       .  A
C1401      C1406   1.402       .  A
C1401      H1417   1.084       .  S
C1402      C1403   1.403       .  A
C1402      H1418   1.084       .  S
C1403      C1413   1.399       .  A
C1403      C1404   1.411       .  A
C1404      C1410   1.412       .  A
C1404      C1405   1.410       .  A
C1405      C1407   1.413       .  A
C1405      C1406   1.412       .  A
C1406      C1414   1.398       .  A
C1407      C1408   1.404       .  A
C1408      C1409   1.400       .  A
C1409      C1410   1.404       .  A
C1409      H1420   1.084       .  S
C1410      C1411   1.405       .  A
C1411      C1412   1.408       .  A
C1411      H1421   1.084       .  S
C1412      C1413   1.406       .  A
C1413      H1422   1.084       .  S
C1415      C1416   1.404   1_565  A
C1416      H1424   1.084       .  S
C1425      C1426   1.400       .  A
C1425      C1430   1.405       .  A
C1425      H1441   1.084       .  S
C1426      C1427   1.404       .  A
C1426      H1442   1.084       .  S
C1427      C1437   1.406       .  A
C1427      C1428   1.413       .  A
C1428      C1434   1.412       .  A
C1428      C1429   1.413       .  A
C1429      C1431   1.412       .  A
C1429      C1430   1.410       .  A
C1430      C1438   1.404       .  A
C1431      C1440   1.405       .  A
C1431      C1432   1.404       .  A
C1432      C1433   1.399       .  A
C1432      H1443   1.083       .  S
C1433      C1434   1.403       .  A
C1433      H1444   1.084       .  S
C1434      C1435   1.403       .  A
C1435      C1436   1.403       .  A
C1435      H1445   1.084       .  S
C1436      C1437   1.406       .  A
C1437      H1446   1.084       .  S
C1438      C1439   1.411       .  A
C1438      H1447   1.084       .  S
C1439      C1440   1.409       .  A
C1440      H1448   1.084       .  S
C1449      C1450   1.397       .  A
C1449      C1454   1.403       .  A
C1449      H1465   1.084       .  S
C1450      H3058   1.084       .  S
C1451      C1461   1.402       .  A
C1451      C1452   1.411       .  A
C1452      C1458   1.411       .  A
C1452      C1453   1.412       .  A
C1453      C1455   1.413       .  A
C1454      C1462   1.400       .  A
C1455      C1464   1.406       .  A
C1455      C1456   1.404       .  A
C1456      C1457   1.400       .  A
C1456      H1467   1.084       .  S
C1457      C1458   1.404       .  A
C1457      H1468   1.084       .  S
C1458      C1459   1.404       .  A
C1459      C1460   1.409       .  A
C1459      H1469   1.084       .  S
C1460      C1461   1.407       .  A
C1461      H1470   1.084       .  S
C1462      C1463   1.403       .  A
C1462      H1471   1.085       .  S
C1464      H1472   1.084       .  S
H1466      C3042   1.084       .  S
C1473      C1474   1.400       .  A
C1473      C1478   1.405       .  A
C1473      H1489   1.084       .  S
C1474      C1475   1.404       .  A
C1474      H1490   1.084       .  S
C1475      C1485   1.405       .  A
C1475      C1476   1.413       .  A
C1476      C1482   1.412       .  A
C1476      C1477   1.412       .  A
C1477      C1479   1.411       .  A
C1477      C1478   1.411       .  A
C1478      C1486   1.404       .  A
C1479      C1488   1.402       .  A
C1479      C1480   1.403       .  A
C1480      C1481   1.398       .  A
C1480      H1491   1.084       .  S
C1481      C1482   1.402       .  A
C1481      H1492   1.084       .  S
C1482      C1483   1.401       .  A
C1483      C1484   1.402       .  A
C1483      H1493   1.084       .  S
C1484      C1485   1.405       .  A
C1485      H1494   1.084       .  S
C1486      C1487   1.411       .  A
C1486      H1495   1.084       .  S
C1487      C1488   1.407       .  A
C1488      H1496   1.084       .  S
C1497      C1498   1.399       .  A
C1497      C1502   1.403       .  A
C1497      H1513   1.084       .  S
C1498      C1499   1.404       .  A
C1498      H1514   1.084       .  S
C1499      C1509   1.403       .  A
C1499      C1500   1.411       .  A
C1500      C1506   1.411       .  A
C1500      C1501   1.413       .  A
C1501      C3095   1.413       .  A
C1501      C1502   1.412       .  A
C1502      C1510   1.402       .  A
C1503      C3093   1.413   1_455  A
C1503      C1512   1.404       .  A
C1503      C1504   1.403       .  A
C1504      C1505   1.400       .  A
C1504      H1515   1.083       .  S
C1505      C3098   1.404   1_455  A
C1505      H1516   1.084       .  S
C1506      C3097   1.404       .  A
C1506      C1507   1.404       .  A
C1507      C1508   1.408       .  A
C1507      H1517   1.084       .  S
C1508      C1509   1.410       .  A
C1509      H1518   1.084       .  S
C1510      C3103   1.403       .  A
C1510      H1519   1.085       .  S
C1511      C3102   1.403   1_455  A
C1511      C1512   1.403       .  A
C1512      H1520   1.084       .  S
C1521      C1522   1.400       .  A
C1521      C1526   1.403       .  A
C1521      H1537   1.084       .  S
C1522      C1523   1.404       .  A
C1522      H1538   1.084       .  S
C1523      C1533   1.404       .  A
C1523      C1524   1.411       .  A
C1524      C1530   1.411       .  A
C1524      C1525   1.412       .  A
C1525      C1527   1.412       .  A
C1525      C1526   1.413       .  A
C1526      C1534   1.404       .  A
C1527      C1536   1.402       .  A
C1527      C1528   1.403       .  A
C1528      C1529   1.399       .  A
C1528      H1539   1.084       .  S
C1529      C1530   1.404       .  A
C1529      H1540   1.084       .  S
C1530      C1531   1.403       .  A
C1531      C1532   1.408       .  A
C1531      H1541   1.084       .  S
C1532      C1533   1.410       .  A
C1533      H1542   1.084       .  S
C1534      C1535   1.405       .  A
C1534      H1543   1.084       .  S
C1535      C1536   1.403       .  A
C1536      H1544   1.084       .  S
C1545      C1546   1.400       .  A
C1545      C1550   1.403       .  A
C1545      H1561   1.084       .  S
C1546      C1547   1.405       .  A
C1546      H1562   1.084       .  S
C1547      C1557   1.404       .  A
C1547      C1548   1.410       .  A
C1548      C1554   1.412       .  A
C1548      C1549   1.412       .  A
C1549      C1551   1.412       .  A
C1549      C1550   1.413       .  A
C1550      C1558   1.404       .  A
C1551      C1560   1.401       .  A
C1551      C1552   1.403       .  A
C1552      C1553   1.398       .  A
C1552      H1563   1.084       .  S
C1553      C1554   1.403       .  A
C1553      H1564   1.083       .  S
C1554      C1555   1.404       .  A
C1555      C1556   1.408       .  A
C1555      H1565   1.084       .  S
C1556      C1557   1.411       .  A
C1557      H1566   1.084       .  S
C1558      C1559   1.405       .  A
C1558      H1567   1.084       .  S
C1559      C1560   1.402       .  A
C1560      H1568   1.084       .  S
C1569      C1570   1.397       .  A
C1569      C1574   1.402       .  A
C1569      H1585   1.084       .  S
C1570      C3163   1.403   1_455  A
C1570      H1586   1.084       .  S
C1571      C3162   1.403       .  A
C1571      C1581   1.401       .  A
C1571      C1572   1.411       .  A
C1572      C1578   1.411       .  A
C1572      C1573   1.411       .  A
C1573      C1575   1.413       .  A
C1573      C3166   1.412       .  A
C1574      C3165   1.412   1_455  A
C1574      C1582   1.400       .  A
C1575      C1584   1.403       .  A
C1575      C1576   1.403       .  A
C1576      C1577   1.399       .  A
C1576      H1587   1.084       .  S
C1577      C1578   1.404       .  A
C1577      H1588   1.084       .  S
C1578      C1579   1.403       .  A
C1579      C1580   1.409       .  A
C1579      H1589   1.084       .  S
C1580      C1581   1.408       .  A
C1581      H1590   1.084       .  S
C1582      C1583   1.401   1_455  A
C1582      H1591   1.085       .  S
C1583      C3176   1.403       .  A
C1584      C3175   1.403       .  A
C1584      H1592   1.084       .  S
C1593      N1594   1.359       .  A
C1593      N1598   1.362       .  A
C1593      C2376   1.484       .  S
N1594      C1595   1.355       .  A
C1595      N1596   1.354       .  A
C1595      C1637   1.460       .  S
N1596      C1597   1.355       .  A
C1597      N1598   1.360       .  A
C1597      C1694   1.463       .  S
C1599      N1600   1.366       .  A
C1599      N1604   1.358       .  A
C1599      C2352   1.487       .  S
N1600      C1601   1.364       .  A
C1601      N1602   1.356       .  A
C1601      C1717   1.472       .  S
C1605      N1606   1.363       .  A
C1605      N1610   1.360       .  A
C1605      C2328   1.487       .  S
N1606      C1607   1.361       .  A
C1607      N1608   1.355       .  A
C1607      C1706   1.465       .  S
N1608      C1609   1.354       .  A
C1609      N1610   1.355       .  A
C1609      C1636   1.461       .  S
C1611      N1612   1.362       .  A
C1611      N1616   1.362       .  A
C1611      C2304   1.486       .  S
N1612      C1613   1.358       .  A
C1613      N1614   1.354       .  A
C1613      C1716   1.462       .  S
N1614      C1615   1.354       .  A
C1615      N1616   1.357       .  A
N1617      N2414   1.320       .  A
N1617      N1623   1.315       .  A
N1617     Mn1646   2.202       .  S
N1618      C1625   1.351       .  A
N1618      N2413   1.319   1_545  A
N1619      N1621   1.316       .  A
N1619      N1620   1.322       .  A
N1619     Mn1635   2.202       .  S
N1620      C1626   1.353       .  A
N1621      N2418   1.319       .  A
N1621     Mn1646   2.203       .  S
N1622      C2422   1.350       .  A
N1622      N2417   1.319   1_545  A
N1623      N1624   1.321       .  A
N1623     Mn1635   2.196       .  S
N1624      C2421   1.352       .  A
C1625      N2420   1.352   1_545  A
C1625      C1670   1.460       .  S
C1626      N2418   1.351       .  A
C1626      C2474   1.465       .  S
N1627      N1633   1.316       .  A
N1627      N1628   1.319       .  A
N1627     Mn1657   2.195       .  S
N1628      C1636   1.350       .  A
N1629      N1630   1.320       .  A
N1629      N1631   1.316       .  A
N1629     Mn1635   2.192       .  S
N1631      N1632   1.319       .  A
N1631     Mn1657   2.204       .  S
N1633      N1634   1.320       .  A
N1633     Mn1635   2.197       .  S
N1634      C1636   1.351       .  A
Mn1635    Cl1659   2.568       .  S
N1638      N1639   1.319       .  A
N1638      N1644   1.316       .  A
N1638     Mn1646   2.199       .  S
N1639      C1647   1.351       .  A
N1640      N1642   1.317       .  A
N1640      N1641   1.323       .  A
N1640     Mn1658   2.209       .  S
N1641      C1648   1.353       .  A
N1642      N2439   1.319       .  A
N1642     Mn1646   2.201       .  S
N1643      C2444   1.349       .  A
N1643      N2438   1.318   1_545  A
N1644      N1645   1.320       .  A
N1644     Mn1658   2.197       .  S
N1645      C1647   1.352       .  A
Mn1646    Cl1659   2.517       .  S
C1647      C2478   1.463       .  S
C1648      N2439   1.350       .  A
N1649      N1650   1.318       .  A
N1649      N1655   1.316       .  A
N1649     Mn1657   2.189       .  S
N1651      N1652   1.322       .  A
N1651      N1653   1.317       .  A
N1651     Mn1658   2.201       .  S
N1652      C1661   1.352       .  A
N1653      N1654   1.320       .  A
N1653     Mn1657   2.209       .  S
N1654      C1661   1.352       .  A
N1655      N1656   1.321       .  A
N1655     Mn1658   2.202       .  S
Mn1657    Cl1659   2.517       .  S
Mn1658    Cl1659   2.571       .  S
C1661      C1664   1.467       .  S
C1662      N1663   1.363       .  A
C1662      N1667   1.360       .  A
C1662      C2283   1.488       .  S
N1663      C1664   1.360       .  A
C1664      N1665   1.356       .  A
N1665      C1666   1.355       .  A
C1666      N1667   1.357       .  A
C1666      C1729   1.461       .  S
C1668      N1669   1.359       .  A
C1668      N1673   1.360       .  A
C1668      C2256   1.481       .  S
N1671      C1672   1.356       .  A
C1672      N1673   1.359       .  A
C1672      C1695   1.462       .  S
C1674      N1675   1.363       .  A
C1674      N1679   1.361       .  A
C1674      C2235   1.489       .  S
N1675      C1676   1.360       .  A
C1676      N1677   1.356       .  A
C1676      C1705   1.469       .  S
N1677      C1678   1.356       .  A
C1678      N1679   1.357       .  A
C1678      C2422   1.465       .  S
C1680      N1681   1.356       .  A
C1680      N1685   1.363       .  A
C1680      C2208   1.481       .  S
N1681      C1682   1.350       .  A
C1682      N1683   1.355       .  A
C1682      C2443   1.460       .  S
N1683      C1684   1.359       .  A
C1684      N1685   1.363       .  A
C1684      C1730   1.469       .  S
N1686      N1687   1.319       .  A
N1686      N1692   1.317       .  A
N1686     Mn1715   2.208       .  S
N1687      C1694   1.351       .  A
N1688      N1690   1.316       .  A
N1688      N1689   1.320       .  A
N1688     Mn1704   2.188       .  S
N1689      C1695   1.351       .  A
N1690      N1691   1.320       .  A
N1690     Mn1715   2.209       .  S
N1691      C1695   1.352       .  A
N1692      N1693   1.322       .  A
N1692     Mn1704   2.199       .  S
N1693      C1694   1.351       .  A
N1696      N1702   1.316       .  A
N1696      N1697   1.321       .  A
N1696     Mn1726   2.211       .  S
N1697      C1705   1.353       .  A
N1698      N1699   1.321       .  A
N1698      N1700   1.316       .  A
N1698     Mn1704   2.190       .  S
N1699      C1706   1.350       .  A
N1700      N1701   1.320       .  A
N1700     Mn1726   2.212       .  S
N1701      C1706   1.353       .  A
N1702      N1703   1.322       .  A
N1702     Mn1704   2.204       .  S
N1703      C1705   1.352       .  A
Mn1704    Cl1728   2.570       .  S
N1707      N1708   1.319       .  A
N1707      N1713   1.317       .  A
N1707     Mn1715   2.205       .  S
N1708      C1716   1.351       .  A
N1709      N1711   1.317       .  A
N1709      N1710   1.323       .  A
N1709     Mn1727   2.202       .  S
N1710      C1717   1.352       .  A
N1711      N1712   1.321       .  A
N1711     Mn1715   2.216       .  S
N1712      C1717   1.353       .  A
N1713      N1714   1.321       .  A
N1713     Mn1727   2.194       .  S
N1714      C1716   1.351       .  A
Mn1715    Cl1728   2.521       .  S
N1718      N1719   1.320       .  A
N1718      N1724   1.317       .  A
N1718     Mn1726   2.207       .  S
N1719      C1729   1.352       .  A
N1720      N1721   1.322       .  A
N1720      N1722   1.317       .  A
N1720     Mn1727   2.202       .  S
N1721      C1730   1.352       .  A
N1722      N1723   1.320       .  A
N1722     Mn1726   2.210       .  S
N1723      C1730   1.352       .  A
N1724      N1725   1.320       .  A
N1724     Mn1727   2.193       .  S
N1725      C1729   1.350       .  A
Mn1726    Cl1728   2.523       .  S
Mn1727    Cl1728   2.569       .  S
N1731      C1736   1.355       .  A
N1731      C1735   1.355       .  A
N1731      H1763   1.033       .  S
N1732      C1739   1.351       .  A
N1732      C1740   1.352       .  A
N1733      C1738   1.353       .  A
N1733      C1737   1.354       .  A
N1733      H1764   1.031       .  S
N1734      C1741   1.351       .  A
N1734      C1742   1.352       .  A
C1735      C1743   1.388       .  A
C1735      C1751   1.421       .  A
C1736      C1752   1.421       .  A
C1736      C1744   1.388       .  A
C1737      C1745   1.389       .  A
C1737      C1754   1.421       .  A
C1738      C1753   1.419       .  A
C1738      C1746   1.388       .  A
C1739      C1751   1.415       .  A
C1739      C1747   1.387       .  A
C1740      C1754   1.414       .  A
C1740      C1748   1.386       .  A
C1741      C1749   1.387       .  A
C1741      C1752   1.415       .  A
C1742      C1750   1.385       .  A
C1742      C1753   1.414       .  A
C1743      C1744   1.374       .  A
C1743      H1755   1.082       .  S
C1744      H1756   1.082       .  S
C1745      C1746   1.370       .  A
C1745      H1757   1.082       .  S
C1746      H1758   1.082       .  S
C1747      C1748   1.376       .  A
C1747      H1759   1.082       .  S
C1748      H1760   1.082       .  S
C1749      C1750   1.376       .  A
C1749      H2557   1.082       .  S
C1750      H2558   1.082       .  S
C1751      C2187   1.485       .  S
C1752      C2160   1.485       .  S
C1753      C2259   1.484       .  S
C1754      C2331   1.485       .  S
H1761      C2545   1.082       .  S
H1762      C2546   1.082       .  S
N1765      C1770   1.356       .  A
N1765      C1769   1.353       .  A
N1765      H1797   1.033       .  S
N1766      C1773   1.348       .  A
N1766      C1774   1.350       .  A
N1767      C1772   1.351       .  A
N1767      C1771   1.353       .  A
N1767      H1798   1.035   1_556  S
N1768      C1775   1.350       .  A
N1768      C1776   1.350       .  A
C1769      C1777   1.387       .  A
C1769      C1785   1.419       .  A
C1770      C1786   1.422       .  A
C1770      C1778   1.388       .  A
C1771      C1779   1.387       .  A
C1771      C1788   1.413       .  A
C1772      C1787   1.415       .  A
C1772      C1780   1.389       .  A
C1773      C1785   1.411       .  A
C1774      C1788   1.408   1_554  A
C1775      C1783   1.387       .  A
C1775      C1786   1.414       .  A
C1776      C1784   1.385       .  A
C1776      C1787   1.410   1_554  A
C1777      C1778   1.374       .  A
C1777      H1789   1.082       .  S
C1778      H1790   1.082       .  S
C1779      C1780   1.368       .  A
C1779      H1791   1.082       .  S
C1780      H1792   1.082       .  S
C1781      C1782   1.376       .  A
C1781      H1793   1.082       .  S
C1782      H1794   1.082   1_554  S
C1783      C1784   1.377       .  A
C1783      H1795   1.082       .  S
C1784      H1796   1.082       .  S
C1785      C2307   1.479       .  S
C1786      C2280   1.487       .  S
C1787      C2115   1.477       .  S
C1788      C2139   1.479       .  S
N1799      C1804   1.353       .  A
N1799      C1803   1.354       .  A
N1799      H1831   1.035       .  S
N1800      C1807   1.351       .  A
N1800      C1808   1.351       .  A
N1801      C1806   1.353       .  A
N1801      C1805   1.352       .  A
N1801      H1832   1.033       .  S
N1802      C1809   1.349       .  A
N1802      C1810   1.350       .  A
C1803      C1811   1.389       .  A
C1803      C1819   1.420       .  A
C1804      C1820   1.417       .  A
C1804      C1812   1.387       .  A
C1805      C1813   1.388       .  A
C1805      C1822   1.418       .  A
C1806      C1821   1.420       .  A
C1806      C1814   1.390       .  A
C1807      C1819   1.415       .  A
C1807      C1815   1.387       .  A
C1808      C1822   1.413       .  A
C1808      C1816   1.385       .  A
C1809      C1820   1.412       .  A
C1810      C1821   1.412       .  A
C1811      C1812   1.373       .  A
C1811      H1823   1.081       .  S
C1812      H1824   1.082       .  S
C1813      C1814   1.369       .  A
C1813      H1825   1.082       .  S
C1814      H1826   1.081       .  S
C1815      C1816   1.376       .  A
C1815      H1827   1.082       .  S
C1816      H1828   1.082       .  S
C1817      C1818   1.376       .  A
C1817      H1829   1.082       .  S
C1818      H1830   1.082       .  S
C1819      C2232   1.486       .  S
C1820      C2379   1.480       .  S
C1821      C2091   1.480       .  S
C1822      C2067   1.482       .  S
N1833      C1838   1.352       .  A
N1833      C1837   1.355       .  A
N1833      H1865   1.035       .  S
N1834      C1841   1.349   1_554  A
N1834      C1842   1.349       .  A
N1835      C1840   1.354       .  A
N1835      C1839   1.351       .  A
N1835      H1866   1.036       .  S
N1836      C1843   1.348   1_554  A
N1836      C1844   1.351       .  A
C1837      C1845   1.389       .  A
C1837      C1853   1.422       .  A
C1838      C1854   1.419       .  A
C1838      C1846   1.388       .  A
C1839      C1847   1.387       .  A
C1839      C1856   1.415       .  A
C1840      C1855   1.418       .  A
C1840      C1848   1.389       .  A
C1841      C1853   1.412       .  A
C1841      C2645   1.387   1_556  A
C1842      C1856   1.409       .  A
C1842      C2646   1.385       .  A
C1843      C1851   1.387   1_556  A
C1843      C1854   1.411       .  A
C1844      C1852   1.385       .  A
C1844      C1855   1.410       .  A
C1845      C1846   1.373       .  A
C1845      H1857   1.082       .  S
C1846      H1858   1.082       .  S
C1847      C1848   1.368       .  A
C1847      H1859   1.082       .  S
C1848      H1860   1.080       .  S
C1849      C2637   1.387   1_544  A
C1849      C1850   1.375   1_545  A
C1849      H1861   1.082   1_554  S
C1850      C2638   1.385       .  A
C1850      H1862   1.082   1_565  S
C1851      C1852   1.375       .  A
C1851      H1863   1.082   1_554  S
C1852      H1864   1.082       .  S
C1853      C2019   1.484       .  S
C1854      C2040   1.476       .  S
C1855      C2355   1.483       .  S
C1856      C2211   1.478       .  S
C1867      N1868   1.358       .  A
C1867      N1872   1.361       .  A
C1867      C2043   1.480       .  S
N1868      C1869   1.352       .  A
C1869      N1870   1.355       .  A
C1869      C1923   1.460       .  S
N1870      C1871   1.357       .  A
C1871      N1872   1.359       .  A
C1873      N1874   1.357       .  A
C1873      N1878   1.360       .  A
C1873      C2136   1.479       .  S
N1874      C1875   1.355       .  A
C1875      N1876   1.355       .  A
C1875      C1969   1.457       .  S
N1876      C1877   1.356       .  A
C1877      N1878   1.356       .  A
C1877      C1911   1.461       .  S
C1879      N1880   1.363       .  A
C1879      N1884   1.361       .  A
C1879      C2016   1.488       .  S
N1880      C1881   1.361       .  A
C1881      N1882   1.355       .  A
C1881      C1979   1.465       .  S
N1882      C1883   1.354       .  A
C1883      N1884   1.356       .  A
C1883      C1912   1.463       .  S
C1885      N1886   1.359       .  A
C1885      N1890   1.361       .  A
C1885      C2112   1.480       .  S
N1886      C1887   1.355       .  A
C1887      N1888   1.354       .  A
C1887      C1980   1.462       .  S
N1888      C1889   1.357       .  A
C1889      N1890   1.358       .  A
C1889      C1922   1.463       .  S
C1891      N1892   1.361       .  A
C1891      N1896   1.362       .  A
C1891      C2064   1.485       .  S
N1892      C1893   1.356       .  A
C1893      N1894   1.356       .  A
C1893      C1933   1.466       .  S
N1894      C1895   1.357       .  A
C1895      N1896   1.360       .  A
C1895      C2004   1.468       .  S
C1897      N1898   1.361       .  A
C1897      N1902   1.360       .  A
C1897      C2163   1.483       .  S
N1898      C1899   1.356       .  A
C1899      N1900   1.356       .  A
C1899      C1990   1.464       .  S
N1900      C1901   1.357       .  A
C1901      N1902   1.356       .  A
C1901      C1934   1.461       .  S
N1903      N1904   1.318       .  A
N1903      N1909   1.316       .  A
N1903     Mn1932   2.194       .  S
N1904      C1911   1.350       .  A
N1905      N1907   1.317       .  A
N1905      N1906   1.322       .  A
N1905     Mn1921   2.203       .  S
N1906      C1912   1.352       .  A
N1907      N1908   1.319       .  A
N1907     Mn1932   2.199       .  S
N1908      C1912   1.350       .  A
N1909      N1910   1.321       .  A
N1909     Mn1921   2.198       .  S
N1910      C1911   1.352       .  A
N1913      N1919   1.316       .  A
N1913      N1914   1.318       .  A
N1913     Mn1943   2.196       .  S
N1914      C1922   1.349       .  A
N1915      N1916   1.321       .  A
N1915      N1917   1.316       .  A
N1915     Mn1921   2.203       .  S
N1916      C1923   1.353       .  A
N1917      N1918   1.319       .  A
N1917     Mn1943   2.193       .  S
N1918      C1923   1.349       .  A
N1919      N1920   1.322       .  A
N1919     Mn1921   2.203       .  S
N1920      C1922   1.353       .  A
Mn1921    Cl1945   2.568       .  S
N1924      N1925   1.320       .  A
N1924      N1930   1.316       .  A
N1924     Mn1932   2.201       .  S
N1925      C1933   1.351       .  A
N1926      N1928   1.316       .  A
N1926      N1927   1.321       .  A
N1926     Mn1944   2.201       .  S
N1927      C1934   1.353       .  A
N1928      N1929   1.318       .  A
N1928     Mn1932   2.194       .  S
N1929      C1934   1.349       .  A
N1930      N1931   1.322       .  A
N1930     Mn1944   2.201       .  S
N1931      C1933   1.353       .  A
Mn1932    Cl1945   2.517       .  S
N1935      N1936   1.319       .  A
N1935      N1941   1.316       .  A
N1935     Mn1943   2.190       .  S
N1936      C1946   1.349       .  A
N1937      N1938   1.321       .  A
N1937      N1939   1.316       .  A
N1937     Mn1944   2.198       .  S
N1938      C1947   1.351       .  A
N1939      N1940   1.319       .  A
N1939     Mn1943   2.199       .  S
N1940      C1947   1.351       .  A
N1941      N1942   1.319       .  A
N1941     Mn1944   2.198       .  S
N1942      C1946   1.351       .  A
Mn1943    Cl1945   2.518       .  S
Mn1944    Cl1945   2.566       .  S
C1946      C1950   1.458       .  S
C1947      C1958   1.462       .  S
C1948      N1949   1.356       .  A
C1948      N1953   1.362       .  A
C1948      C2088   1.481       .  S
N1949      C1950   1.352       .  A
C1950      N1951   1.354       .  A
N1951      C1952   1.357       .  A
C1952      N1953   1.360       .  A
C1954      N1955   1.362       .  A
C1954      N1959   1.361       .  A
C1954      C2184   1.487       .  S
N1955      C1956   1.358       .  A
C1956      N1957   1.355       .  A
C1956      C2003   1.464       .  S
N1957      C1958   1.355       .  A
C1958      N1959   1.358       .  A
N1960      N1966   1.316       .  A
N1960     Mn1989   2.197       .  S
N1962      N1964   1.316       .  A
N1962      N2759   1.320       .  A
N1962     Mn1978   2.194       .  S
N1963      N2758   1.318       .  A
N1964     Mn1989   2.198       .  S
N1965      C2765   1.351       .  A
N1966      N1967   1.321       .  A
N1966     Mn1978   2.196       .  S
N1967      C1968   1.352       .  A
C1969      N2761   1.350   1_545  A
N1970      N1976   1.317       .  A
N1970      N2767   1.321       .  A
N1970     Mn2000   2.212       .  S
N1971      C1979   1.352   1_565  A
N1971      N2766   1.319       .  A
N1972      N1973   1.319       .  A
N1972      N1974   1.316       .  A
N1972     Mn1978   2.189       .  S
N1973      C1980   1.350       .  A
N1974      N1975   1.320       .  A
N1974     Mn2000   2.206       .  S
N1975      C1980   1.352       .  A
N1976      N2773   1.322       .  A
N1976     Mn1978   2.198       .  S
N1977      C1979   1.352   1_565  A
N1977      N2772   1.322       .  A
Mn1978    Cl2002   2.565       .  S
N1981      N1982   1.319   1_455  A
N1982      C2786   1.349       .  A
N1983      N1985   1.316       .  A
N1983      N1984   1.322       .  A
N1983     Mn2001   2.195       .  S
N1984      C1991   1.352       .  A
N1985     Mn1989   2.197       .  S
N1987      N2784   1.322       .  A
N1987     Mn2001   2.204       .  S
N1988      N2783   1.321       .  A
Mn1989    Cl2002   2.518       .  S
C1990      N2778   1.351   1_545  A
N1992      N1993   1.320       .  A
N1992      N1998   1.316       .  A
N1992     Mn2000   2.208       .  S
N1993      C2003   1.352       .  A
N1994      N2791   1.322       .  A
N1994      N1996   1.317       .  A
N1994     Mn2001   2.200       .  S
N1995      C2004   1.352   1_565  A
N1995      N2790   1.322       .  A
N1996      N2793   1.320       .  A
N1996     Mn2000   2.207       .  S
N1997      C2004   1.352       .  A
N1997      N2792   1.320   1_545  A
N1998      N1999   1.321       .  A
N1998     Mn2001   2.197       .  S
N1999      C2003   1.351       .  A
Mn2000    Cl2002   2.522       .  S
Mn2001    Cl2002   2.569       .  S
C2005      C2006   1.397       .  A
C2005      C2010   1.402       .  A
C2005      H2021   1.084       .  S
C2006      C2007   1.403       .  A
C2006      H2022   1.084       .  S
C2007      C2017   1.400       .  A
C2007      C2008   1.410       .  A
C2008      C2014   1.412       .  A
C2008      C2009   1.412       .  A
C2009      C2807   1.412       .  A
C2009      C2010   1.412       .  A
C2010      C2018   1.400       .  A
C2011      C2805   1.413       .  A
C2011      C2020   1.404       .  A
C2011      C2012   1.403       .  A
C2012      C2013   1.400       .  A
C2012      H2023   1.084       .  S
C2013      C2810   1.404       .  A
C2013      H2024   1.084       .  S
C2014      C2809   1.405       .  A
C2014      C2015   1.407       .  A
C2015      C2016   1.410       .  A
C2015      H2025   1.084       .  S
C2016      C2017   1.409       .  A
C2017      H2026   1.084       .  S
C2018      C2815   1.403   1_545  A
C2018      H2027   1.085       .  S
C2019      C2814   1.404       .  A
C2019      C2020   1.404       .  A
C2020      H2028   1.084       .  S
C2029      C2030   1.400       .  A
C2029      C2034   1.404       .  A
C2029      H2045   1.084   1_655  S
C2030      C2031   1.404       .  A
C2030      H2046   1.084       .  S
C2031      C2041   1.403       .  A
C2031      C2032   1.412       .  A
C2032      C2038   1.413       .  A
C2032      C2033   1.409       .  A
C2033      C2035   1.410       .  A
C2033      C2034   1.412       .  A
C2034      C2042   1.405       .  A
C2035      C2044   1.396       .  A
C2035      C2036   1.403       .  A
C2036      C2037   1.395       .  A
C2036      H2047   1.084       .  S
C2037      C2038   1.401       .  A
C2037      H2048   1.084       .  S
C2038      C2039   1.397       .  A
C2039      C2040   1.400       .  A
C2039      H2049   1.085       .  S
C2040      C2041   1.403       .  A
C2041      H2050   1.084       .  S
C2042      C2043   1.408       .  A
C2042      H2051   1.084       .  S
C2043      C2044   1.407       .  A
C2044      H2052   1.084       .  S
C2053      C2054   1.398       .  A
C2053      C2058   1.403       .  A
C2053      H2069   1.084       .  S
C2054      C2055   1.403       .  A
C2054      H2070   1.084       .  S
C2055      C2065   1.401       .  A
C2055      C2056   1.411       .  A
C2056      C2062   1.412       .  A
C2056      C2057   1.412       .  A
C2057      C2059   1.412       .  A
C2057      C2058   1.412       .  A
C2058      C2066   1.401       .  A
C2059      C2068   1.404       .  A
C2059      C2060   1.403       .  A
C2060      C2061   1.400       .  A
C2060      H2071   1.084       .  S
C2061      C2062   1.404       .  A
C2061      H2072   1.084       .  S
C2062      C2063   1.405       .  A
C2063      C2064   1.409       .  A
C2063      H2073   1.084       .  S
C2064      C2065   1.408       .  A
C2065      H2074   1.084       .  S
C2066      C2067   1.403       .  A
C2066      H2075   1.085       .  S
C2067      C2068   1.404       .  A
C2068      H2076   1.084       .  S
C2077      C2078   1.398       .  A
C2077      C2082   1.403       .  A
C2077      H2093   1.084       .  S
C2078      H2094   1.084       .  S
C2079      C2089   1.402       .  A
C2079      C2080   1.413       .  A
C2080      C2086   1.409       .  A
C2080      C2081   1.410       .  A
C2081      C2083   1.413       .  A
C2082      C2090   1.400       .  A
C2083      C2092   1.402       .  A
C2083      C2084   1.403       .  A
C2084      C2085   1.398       .  A
C2084      H2095   1.084       .  S
C2085      C2086   1.404       .  A
C2085      H2096   1.084       .  S
C2086      C2087   1.399       .  A
C2087      C2088   1.410       .  A
C2087      H2097   1.084       .  S
C2088      C2089   1.406       .  A
C2089      H2098   1.084   1_655  S
C2090      C2091   1.402       .  A
C2090      H2099   1.084       .  S
C2092      H2100   1.084       .  S
C2101      C2102   1.397       .  A
C2101      C2106   1.403       .  A
C2101      H2117   1.084       .  S
C2102      C2103   1.403       .  A
C2102      H2118   1.084       .  S
C2103      C2113   1.400       .  A
C2103      C2104   1.411       .  A
C2104      C2110   1.412       .  A
C2104      C2105   1.410       .  A
C2105      C2107   1.413       .  A
C2105      C2106   1.412       .  A
C2106      C2114   1.399       .  A
C2107      C2116   1.402       .  A
C2107      C2108   1.403       .  A
C2108      C2109   1.399       .  A
C2108      H2119   1.084       .  S
C2109      C2110   1.404       .  A
C2109      H2120   1.084       .  S
C2110      C2111   1.403       .  A
C2111      C2112   1.407       .  A
C2111      H2121   1.084       .  S
C2112      C2113   1.407       .  A
C2113      H2122   1.084       .  S
C2114      C2115   1.403       .  A
C2114      H2123   1.085       .  S
C2115      C2116   1.403       .  A
C2116      H2124   1.084       .  S
C2125      C2126   1.399       .  A
C2125      C2130   1.403       .  A
C2125      H2141   1.084       .  S
C2126      C2127   1.404   1_455  A
C2126      H2142   1.084       .  S
C2127      C2137   1.402       .  A
C2127      C2128   1.411       .  A
C2128      C2134   1.411       .  A
C2128      C2129   1.410       .  A
C2129      C2131   1.412       .  A
C2129      C2130   1.413   1_655  A
C2131      C2140   1.399       .  A
C2131      C2132   1.402       .  A
C2132      C2133   1.396       .  A
C2132      H2143   1.084       .  S
C2133      C2134   1.402       .  A
C2133      H2144   1.084       .  S
C2134      C2135   1.399       .  A
C2135      C2136   1.406       .  A
C2135      H2145   1.084       .  S
C2136      C2137   1.409       .  A
C2137      H2146   1.084   1_655  S
C2138      C2139   1.404       .  A
C2138      H2147   1.084       .  S
C2140      H2148   1.085       .  S
C2149      C2150   1.400       .  A
C2149      C2154   1.404       .  A
C2149      H2165   1.084       .  S
C2150      C2151   1.404       .  A
C2150      H2166   1.084       .  S
C2151      C2957   1.404       .  A
C2151      C2152   1.412       .  A
C2152      C2158   1.412   1_545  A
C2152      C2153   1.411       .  A
C2153      C2155   1.411       .  A
C2153      C2154   1.411       .  A
C2154      C2162   1.403       .  A
C2155      C2164   1.400       .  A
C2155      C2156   1.403   1_545  A
C2156      C2157   1.398       .  A
C2157      C2158   1.403       .  A
C2157      H2168   1.084       .  S
C2158      C2955   1.401       .  A
C2159      C2954   1.402       .  A
C2159      C2160   1.403       .  A
C2159      H2169   1.084       .  S
C2160      C2161   1.404       .  A
C2161      C2947   1.404       .  A
C2161      H2170   1.084       .  S
C2162      C2163   1.409       .  A
C2162      H2171   1.084       .  S
C2163      C2164   1.408       .  A
C2164      H2172   1.084       .  S
C2173      C2174   1.399       .  A
C2173      C2178   1.404       .  A
C2173      H2189   1.084       .  S
C2174      C2175   1.404       .  A
C2174      H2190   1.084       .  S
C2175      C2185   1.404       .  A
C2175      C2176   1.411       .  A
C2176      C2182   1.411       .  A
C2176      C2177   1.413       .  A
C2177      C2179   1.413       .  A
C2177      C2178   1.412       .  A
C2178      C2186   1.403       .  A
C2179      C2188   1.404       .  A
C2179      C2180   1.403       .  A
C2180      C2181   1.399       .  A
C2180      H2191   1.083       .  S
C2181      C2182   1.404       .  A
C2181      H2192   1.084       .  S
C2182      C2183   1.403       .  A
C2183      C2184   1.408       .  A
C2183      H2193   1.084       .  S
C2184      C2185   1.410       .  A
C2185      H2194   1.084       .  S
C2186      C2187   1.404       .  A
C2186      H2195   1.084       .  S
C2187      C2188   1.404       .  A
C2188      H2196   1.084       .  S
C2197      C2198   1.396       .  A
C2197      C2202   1.402       .  A
C2197      H2213   1.084       .  S
C2198      C2199   1.403       .  A
C2198      H2214   1.084       .  S
C2199      C2209   1.397   1_565  A
C2199      C2200   1.409   1_565  A
C2200      C2206   1.413       .  A
C2200      C2201   1.410       .  A
C2201      C2203   1.412       .  A
C2201      C2202   1.413   1_545  A
C2202      C2210   1.399       .  A
C2203      C3008   1.402       .  A
C2203      C2204   1.403       .  A
C2204      C2205   1.400       .  A
C2204      H3011   1.084       .  S
C2205      C2206   1.404       .  A
C2205      H2216   1.083       .  S
C2206      C2207   1.406       .  A
C2207      C2208   1.407       .  A
C2207      H2217   1.084       .  S
C2208      C2209   1.408       .  A
C2209      H2218   1.084   1_545  S
C2210      C3007   1.402       .  A
C2210      H3015   1.085       .  S
C2211      C3006   1.402       .  A
C2211      C2212   1.404       .  A
C2212      C2999   1.404       .  A
C2212      H2220   1.084       .  S
H2215      C3000   1.084       .  S
H2219      C3006   1.085       .  S
C2221      C2222   1.400       .  A
C2221      C2226   1.405       .  A
C2221      H2237   1.084       .  S
C2222      C2223   1.404       .  A
C2222      H2238   1.084       .  S
C2223      C2233   1.405       .  A
C2223      C2224   1.413       .  A
C2224      C2230   1.412       .  A
C2224      C2225   1.413       .  A
C2225      C2227   1.412       .  A
C2225      C2226   1.410       .  A
C2226      C2234   1.404       .  A
C2227      C2236   1.404       .  A
C2227      C2228   1.404       .  A
C2228      C2229   1.399       .  A
C2228      H2239   1.084       .  S
C2229      C2230   1.403       .  A
C2229      H2240   1.084       .  S
C2230      C2231   1.402       .  A
C2231      C2232   1.403       .  A
C2231      H2241   1.084       .  S
C2232      C2233   1.405       .  A
C2233      H2242   1.084       .  S
C2234      C2235   1.411       .  A
C2234      H2243   1.084       .  S
C2235      C2236   1.409       .  A
C2236      H2244   1.084       .  S
C2245      C2246   1.398       .  A
C2245      C2250   1.403       .  A
C2245      H2261   1.084       .  S
C2246      C3043   1.403       .  A
C2247      C3042   1.403       .  A
C2247      C2257   1.401   1_565  A
C2247      C2248   1.411   1_565  A
C2248      C2254   1.411       .  A
C2248      C2249   1.411       .  A
C2249      C2251   1.413       .  A
C2249      C3046   1.412   1_545  A
C2250      C3045   1.412       .  A
C2250      C2258   1.401       .  A
C2251      C2260   1.404       .  A
C2251      C2252   1.403       .  A
C2252      C2253   1.399       .  A
C2252      H2263   1.084       .  S
C2253      C2254   1.404       .  A
C2253      H2264   1.084       .  S
C2254      C2255   1.403       .  A
C2255      C2256   1.408       .  A
C2255      H2265   1.084       .  S
C2256      C2257   1.407       .  A
C2257      H2266   1.084   1_545  S
C2258      C2259   1.404       .  A
C2258      H2267   1.085       .  S
C2259      C3056   1.405       .  A
C2260      C3055   1.404   1_545  A
C2260      H2268   1.084       .  S
C2269      C2270   1.401       .  A
C2269      C2274   1.405       .  A
C2269      H2285   1.084       .  S
C2270      C2271   1.404       .  A
C2270      H2286   1.084       .  S
C2271      C2281   1.405       .  A
C2271      C2272   1.413       .  A
C2272      C2278   1.412       .  A
C2272      C2273   1.413       .  A
C2273      C2275   1.411       .  A
C2273      C2274   1.411       .  A
C2274      C2282   1.405       .  A
C2275      C2284   1.402       .  A
C2275      C2276   1.403       .  A
C2276      C2277   1.398       .  A
C2276      H2287   1.084       .  S
C2277      C2278   1.403       .  A
C2277      H2288   1.083       .  S
C2278      C2279   1.403       .  A
C2279      C2280   1.403       .  A
C2279      H2289   1.084       .  S
C2280      C2281   1.406       .  A
C2281      H2290   1.084       .  S
C2282      C2283   1.411       .  A
C2282      H2291   1.084       .  S
C2283      C2284   1.407       .  A
C2284      H2292   1.084       .  S
C2293      C2294   1.398       .  A
C2293      C2298   1.402       .  A
C2293      H2309   1.084       .  S
C2294      C2295   1.404       .  A
C2294      H2310   1.084       .  S
C2295      C2305   1.402       .  A
C2295      C2296   1.411       .  A
C2296      C2302   1.411       .  A
C2296      C2297   1.411       .  A
C2297      C2298   1.412       .  A
C2298      C2306   1.400       .  A
C2299      C2308   1.404       .  A
C2299      C2300   1.403       .  A
C2300      C2301   1.399       .  A
C2300      H2311   1.084       .  S
C2301      H2312   1.084       .  S
C2302      C2303   1.403       .  A
C2303      C2304   1.409       .  A
C2303      H2313   1.084       .  S
C2304      C2305   1.409       .  A
C2305      H2314   1.084       .  S
C2306      H2315   1.085       .  S
C2307      C2308   1.403       .  A
C2308      H2316   1.084       .  S
C2317      C2318   1.398       .  A
C2317      C2322   1.403       .  A
C2317      H2333   1.084       .  S
C2318      C2319   1.404       .  A
C2318      H2334   1.084       .  S
C2319      C2329   1.401       .  A
C2319      C2320   1.410       .  A
C2320      C2326   1.412       .  A
C2320      C2321   1.413       .  A
C2321      C2323   1.412       .  A
C2321      C2322   1.413       .  A
C2322      C2330   1.403       .  A
C2323      C2332   1.403       .  A
C2323      C2324   1.404       .  A
C2324      C2325   1.400       .  A
C2324      H2335   1.084       .  S
C2325      C2326   1.404       .  A
C2325      H2336   1.084       .  S
C2326      C2327   1.406       .  A
C2327      C2328   1.409       .  A
C2327      H2337   1.084       .  S
C2328      C2329   1.410       .  A
C2329      H2338   1.084       .  S
C2330      C2331   1.404       .  A
C2330      H2339   1.084       .  S
C2331      C2332   1.404       .  A
C2332      H2340   1.084       .  S
C2341      C2342   1.399       .  A
C2341      C2346   1.403       .  A
C2341      H2357   1.084       .  S
C2342      C2343   1.405       .  A
C2342      H2358   1.084       .  S
C2343      C2353   1.401       .  A
C2343      C2344   1.409       .  A
C2344      C2350   1.413       .  A
C2344      C2345   1.412       .  A
C2345      C2347   1.412       .  A
C2345      C2346   1.413       .  A
C2346      C2354   1.403       .  A
C2347      C2356   1.402       .  A
C2347      C2348   1.403       .  A
C2348      C2349   1.399       .  A
C2348      H2359   1.083       .  S
C2349      C2350   1.403       .  A
C2349      H2360   1.083       .  S
C2350      C2351   1.405       .  A
C2351      C2352   1.407       .  A
C2351      H2361   1.084       .  S
C2352      C2353   1.411       .  A
C2353      H2362   1.084       .  S
C2354      C2355   1.404       .  A
C2354      H2363   1.084       .  S
C2355      C2356   1.403       .  A
C2356      H2364   1.084       .  S
C2365      C2366   1.398       .  A
C2365      C2370   1.403       .  A
C2365      H2381   1.084       .  S
C2366      H2382   1.084       .  S
C2367      C2377   1.401       .  A
C2367      C2368   1.410       .  A
C2368      C2374   1.412       .  A
C2368      C2369   1.411       .  A
C2369      C2371   1.413       .  A
C2370      C2378   1.401       .  A
C2371      C2380   1.403       .  A
C2371      C2372   1.403       .  A
C2372      C2373   1.399       .  A
C2372      H2383   1.083       .  S
C2373      C2374   1.404       .  A
C2373      H2384   1.084       .  S
C2374      C2375   1.404       .  A
C2375      C2376   1.407       .  A
C2375      H2385   1.084       .  S
C2376      C2377   1.409       .  A
C2377      H2386   1.084       .  S
C2378      C2379   1.403       .  A
C2378      H2387   1.085       .  S
C2380      H2388   1.084       .  S
C2389      N2390   1.361       .  A
C2389      N2394   1.361       .  A
C2389      C3172   1.484       .  S
N2390      C2391   1.357       .  A
C2391      N2392   1.354       .  A
C2391      C2433   1.462       .  S
N2392      C2393   1.355       .  A
C2393      N2394   1.358       .  A
C2393      C2490   1.461       .  S
C2395      N2396   1.365       .  A
C2395      N2400   1.361       .  A
C2395      C3148   1.488       .  S
N2396      C2397   1.361       .  A
C2397      N2398   1.355       .  A
C2397      C2513   1.472       .  S
C2401      N2402   1.362       .  A
C2401      N2406   1.359       .  A
C2401      C3124   1.487       .  S
N2402      C2403   1.359       .  A
C2403      N2404   1.357       .  A
C2403      C2502   1.468       .  S
N2404      C2405   1.357       .  A
C2405      N2406   1.357       .  A
C2405      C2432   1.464       .  S
C2407      N2408   1.361       .  A
C2407      N2412   1.363       .  A
C2407      C3100   1.488       .  S
N2408      C2409   1.357       .  A
C2409      N2410   1.355       .  A
C2409      C2512   1.463       .  S
N2410      C2411   1.356       .  A
C2411      N2412   1.359       .  A
N2413      N2419   1.315       .  A
N2413     Mn2442   2.195       .  S
N2414      C2421   1.352       .  A
N2415      N2417   1.316       .  A
N2415      N2416   1.322       .  A
N2415     Mn2431   2.201       .  S
N2416      C2422   1.353   1_565  A
N2417     Mn2442   2.201       .  S
N2419      N2420   1.320       .  A
N2419     Mn2431   2.194       .  S
C2421      C2466   1.465       .  S
N2423      N2429   1.316       .  A
N2423      N2424   1.320       .  A
N2423     Mn2453   2.200       .  S
N2424      C2432   1.351       .  A
N2425      N2426   1.321       .  A
N2425      N2427   1.316       .  A
N2425     Mn2431   2.194       .  S
N2427      N2428   1.319       .  A
N2427     Mn2453   2.204       .  S
N2429      N2430   1.320       .  A
N2429     Mn2431   2.196       .  S
N2430      C2432   1.352       .  A
Mn2431    Cl2455   2.567       .  S
N2434      N2435   1.319   1_565  A
N2434      N2440   1.316       .  A
N2434     Mn2442   2.189       .  S
N2435      C2443   1.349       .  A
N2436      N2438   1.318       .  A
N2436      N2437   1.323       .  A
N2436     Mn2454   2.207       .  S
N2437      C2444   1.353   1_565  A
N2438     Mn2442   2.199       .  S
N2440      N2441   1.319       .  A
N2440     Mn2454   2.201       .  S
N2441      C2443   1.353   1_565  A
Mn2442    Cl2455   2.517       .  S
N2445      N2446   1.318       .  A
N2445      N2451   1.317       .  A
N2445     Mn2453   2.197       .  S
N2447      N2448   1.323       .  A
N2447      N2449   1.317       .  A
N2447     Mn2454   2.205       .  S
N2448      C2457   1.354       .  A
N2449      N2450   1.318       .  A
N2449     Mn2453   2.199       .  S
N2450      C2457   1.350       .  A
N2451      N2452   1.323       .  A
N2451     Mn2454   2.206       .  S
Mn2453    Cl2455   2.515       .  S
Mn2454    Cl2455   2.571       .  S
C2457      C2460   1.465       .  S
C2458      N2459   1.362       .  A
C2458      N2463   1.359       .  A
C2458      C3079   1.486       .  S
N2459      C2460   1.358       .  A
C2460      N2461   1.357       .  A
N2461      C2462   1.356       .  A
C2462      N2463   1.356       .  A
C2462      C2525   1.463       .  S
C2464      N2465   1.360       .  A
C2464      N2469   1.360       .  A
C2464      C3052   1.484       .  S
N2467      C2468   1.356       .  A
C2468      N2469   1.358       .  A
C2468      C2491   1.464       .  S
C2470      N2471   1.364       .  A
C2470      N2475   1.361       .  A
C2470      C3031   1.490       .  S
N2471      C2472   1.360       .  A
C2472      N2473   1.357       .  A
C2472      C2501   1.470       .  S
N2473      C2474   1.356       .  A
C2474      N2475   1.357       .  A
C2476      N2477   1.358       .  A
C2476      N2481   1.361       .  A
C2476      C3004   1.480       .  S
N2477      C2478   1.354       .  A
C2478      N2479   1.356       .  A
N2479      C2480   1.357       .  A
C2480      N2481   1.360       .  A
C2480      C2526   1.466       .  S
N2482      N2483   1.318       .  A
N2482      N2488   1.318       .  A
N2482     Mn2511   2.202       .  S
N2483      C2490   1.350       .  A
N2484      N2486   1.316       .  A
N2484      N2485   1.320       .  A
N2484     Mn2500   2.193       .  S
N2485      C2491   1.351       .  A
N2486      N2487   1.320       .  A
N2486     Mn2511   2.206       .  S
N2487      C2491   1.352       .  A
N2488      N2489   1.322       .  A
N2488     Mn2500   2.203       .  S
N2489      C2490   1.352       .  A
N2492      N2498   1.317       .  A
N2492      N2493   1.320       .  A
N2492     Mn2522   2.210       .  S
N2493      C2501   1.352       .  A
N2494      N2495   1.322       .  A
N2494      N2496   1.316       .  A
N2494     Mn2500   2.200       .  S
N2495      C2502   1.353       .  A
N2496      N2497   1.320       .  A
N2496     Mn2522   2.206       .  S
N2497      C2502   1.352       .  A
N2498      N2499   1.323       .  A
N2498     Mn2500   2.207       .  S
N2499      C2501   1.353       .  A
Mn2500    Cl2524   2.568       .  S
N2503      N2504   1.320       .  A
N2503      N2509   1.316       .  A
N2503     Mn2511   2.202       .  S
N2504      C2512   1.351       .  A
N2505      N2507   1.317       .  A
N2505      N2506   1.323       .  A
N2505     Mn2523   2.200       .  S
N2506      C2513   1.352       .  A
N2507      N2508   1.322       .  A
N2507     Mn2511   2.216       .  S
N2508      C2513   1.353       .  A
N2509      N2510   1.321       .  A
N2509     Mn2523   2.198       .  S
N2510      C2512   1.351       .  A
Mn2511    Cl2524   2.524       .  S
N2514      N2515   1.321       .  A
N2514      N2520   1.317       .  A
N2514     Mn2522   2.208       .  S
N2515      C2525   1.352       .  A
N2516      N2517   1.321       .  A
N2516      N2518   1.316       .  A
N2516     Mn2523   2.196       .  S
N2517      C2526   1.351       .  A
N2518      N2519   1.320       .  A
N2518     Mn2522   2.206       .  S
N2519      C2526   1.352       .  A
N2520      N2521   1.320       .  A
N2520     Mn2523   2.199       .  S
N2521      C2525   1.351       .  A
Mn2522    Cl2524   2.526       .  S
Mn2523    Cl2524   2.566       .  S
N2527      C2532   1.354       .  A
N2527      C2531   1.353       .  A
N2527      H2559   1.034       .  S
N2528      C2535   1.350       .  A
N2528      C2536   1.351       .  A
N2529      C2534   1.352       .  A
N2529      C2533   1.354       .  A
N2529      H2560   1.033       .  S
N2530      C2537   1.350       .  A
N2530      C2538   1.351       .  A
C2531      C2539   1.388       .  A
C2531      C2547   1.419       .  A
C2532      C2548   1.419       .  A
C2532      C2540   1.388       .  A
C2533      C2541   1.388       .  A
C2533      C2550   1.418       .  A
C2534      C2549   1.418       .  A
C2534      C2542   1.389       .  A
C2535      C2547   1.413       .  A
C2535      C2543   1.387       .  A
C2536      C2550   1.412       .  A
C2536      C2544   1.385       .  A
C2537      C2545   1.387   1_565  A
C2537      C2548   1.413       .  A
C2538      C2546   1.385   1_565  A
C2538      C2549   1.412       .  A
C2539      C2540   1.373       .  A
C2539      H2551   1.082       .  S
C2540      H2552   1.082       .  S
C2541      C2542   1.368       .  A
C2541      H2553   1.082       .  S
C2542      H2554   1.082       .  S
C2543      C2544   1.376       .  A
C2543      H2555   1.082       .  S
C2544      H2556   1.082       .  S
C2545      C2546   1.377       .  A
C2547      C2983   1.481       .  S
C2548      C2956   1.483   1_565  S
C2549      C3055   1.480       .  S
C2550      C3127   1.484       .  S
N2561      C2566   1.355       .  A
N2561      C2565   1.354       .  A
N2561      H2593   1.035       .  S
N2562      C2569   1.349       .  A
N2562      C2570   1.349       .  A
N2563      C2568   1.351       .  A
N2563      C2567   1.352       .  A
N2563      H2594   1.035   1_556  S
N2564      C2571   1.349       .  A
N2564      C2572   1.350       .  A
C2565      C2573   1.386       .  A
C2565      C2581   1.417       .  A
C2566      C2582   1.421       .  A
C2566      C2574   1.389       .  A
C2567      C2575   1.388       .  A
C2567      C2584   1.414       .  A
C2568      C2583   1.415       .  A
C2568      C2576   1.389       .  A
C2569      C2581   1.410       .  A
C2570      C2584   1.408   1_554  A
C2571      C2579   1.388       .  A
C2571      C2582   1.413       .  A
C2572      C2580   1.385       .  A
C2572      C2583   1.409   1_554  A
C2573      C2574   1.374       .  A
C2573      H2585   1.082       .  S
C2574      H2586   1.081       .  S
C2575      C2576   1.369       .  A
C2575      H2587   1.082       .  S
C2576      H2588   1.082       .  S
C2577      C2578   1.376       .  A
C2577      H2589   1.082       .  S
C2578      H2590   1.082   1_554  S
C2579      C2580   1.377       .  A
C2579      H2591   1.082       .  S
C2580      H2592   1.082       .  S
C2581      C3103   1.483       .  S
C2582      C3076   1.484       .  S
C2583      C2911   1.478       .  S
C2584      C2935   1.478       .  S
N2595      C2600   1.354       .  A
N2595      C2599   1.356       .  A
N2595      H2627   1.032       .  S
N2596      C2603   1.351       .  A
N2596      C2604   1.351       .  A
N2597      C2602   1.354       .  A
N2597      C2601   1.352       .  A
N2597      H2628   1.034       .  S
N2598      C2605   1.348       .  A
N2598      C2606   1.350       .  A
C2599      C2607   1.389       .  A
C2599      C2615   1.423       .  A
C2600      C2616   1.420       .  A
C2600      C2608   1.387       .  A
C2601      C2609   1.387       .  A
C2601      C2618   1.416       .  A
C2602      C2617   1.418       .  A
C2602      C2610   1.389       .  A
C2603      C2615   1.416       .  A
C2603      C2611   1.387       .  A
C2604      C2618   1.412       .  A
C2604      C2612   1.385       .  A
C2605      C2616   1.411       .  A
C2606      C2617   1.409       .  A
C2607      C2608   1.375       .  A
C2607      H2619   1.082       .  S
C2608      H2620   1.082       .  S
C2609      C2610   1.368       .  A
C2609      H2621   1.082       .  S
C2610      H2622   1.081       .  S
C2611      C2612   1.377       .  A
C2611      H2623   1.082       .  S
C2612      H2624   1.082       .  S
C2613      C2614   1.375       .  A
C2613      H2625   1.082       .  S
C2614      H2626   1.082       .  S
C2615      C3028   1.488       .  S
C2616      C3175   1.479       .  S
C2617      C2887   1.480       .  S
C2618      C2863   1.482       .  S
N2629      C2634   1.355       .  A
N2629      C2633   1.356       .  A
N2629      H2661   1.029       .  S
N2630      C2637   1.349   1_554  A
N2630      C2638   1.348       .  A
N2631      C2636   1.357       .  A
N2631      C2635   1.354       .  A
N2631      H2662   1.035       .  S
N2632      C2639   1.347   1_554  A
N2632      C2640   1.349       .  A
C2633      C2641   1.388       .  A
C2633      C2649   1.425       .  A
C2634      C2650   1.424       .  A
C2634      C2642   1.388       .  A
C2635      C2643   1.389       .  A
C2635      C2652   1.419       .  A
C2636      C2651   1.418       .  A
C2636      C2644   1.387       .  A
C2637      C2649   1.415       .  A
C2638      C2652   1.410       .  A
C2639      C2647   1.388   1_556  A
C2639      C2650   1.413       .  A
C2640      C2648   1.384       .  A
C2640      C2651   1.408       .  A
C2641      C2642   1.372       .  A
C2641      H2653   1.082       .  S
C2642      H2654   1.082       .  S
C2643      C2644   1.366       .  A
C2643      H2655   1.082       .  S
C2644      H2656   1.082       .  S
C2645      C2646   1.376       .  A
C2645      H2657   1.082   1_554  S
C2646      H2658   1.082       .  S
C2647      C2648   1.374       .  A
C2647      H2659   1.082   1_554  S
C2648      H2660   1.082       .  S
C2649      C2815   1.487       .  S
C2650      C2836   1.479       .  S
C2651      C3151   1.483       .  S
C2652      C3007   1.479       .  S
C2663      N2664   1.360       .  A
C2663      N2668   1.361       .  A
C2663      C2839   1.483       .  S
N2664      C2665   1.354       .  A
C2665      N2666   1.357       .  A
C2665      C2719   1.463       .  S
N2666      C2667   1.357       .  A
C2667      N2668   1.359       .  A
C2669      N2670   1.358       .  A
C2669      N2674   1.359       .  A
C2669      C2932   1.480       .  S
N2670      C2671   1.356       .  A
C2671      N2672   1.357       .  A
C2671      C2765   1.461       .  S
N2672      C2673   1.357       .  A
C2673      N2674   1.356       .  A
C2673      C2707   1.463       .  S
C2675      N2676   1.363       .  A
C2675      N2680   1.363       .  A
C2675      C2812   1.488       .  S
N2676      C2677   1.359       .  A
C2677      N2678   1.354       .  A
C2677      C2775   1.466       .  S
N2678      C2679   1.355       .  A
C2679      N2680   1.358       .  A
C2679      C2708   1.465       .  S
C2681      N2682   1.360       .  A
C2681      N2686   1.359       .  A
C2681      C2908   1.480       .  S
N2682      C2683   1.357       .  A
C2683      N2684   1.355       .  A
C2683      C2776   1.465       .  S
N2684      C2685   1.357       .  A
C2685      N2686   1.356       .  A
C2685      C2718   1.461       .  S
C2687      N2688   1.361       .  A
C2687      N2692   1.362       .  A
C2687      C2860   1.484       .  S
N2688      C2689   1.357       .  A
C2689      N2690   1.355       .  A
C2689      C2729   1.464       .  S
N2690      C2691   1.355       .  A
C2691      N2692   1.359       .  A
C2691      C2800   1.466       .  S
C2693      N2694   1.361       .  A
C2693      N2698   1.359       .  A
C2693      C2959   1.483       .  S
N2694      C2695   1.357       .  A
C2695      N2696   1.356       .  A
C2695      C2786   1.462       .  S
N2696      C2697   1.355       .  A
C2697      N2698   1.356       .  A
C2697      C2730   1.460       .  S
N2699      N2700   1.319       .  A
N2699      N2705   1.316       .  A
N2699     Mn2728   2.196       .  S
N2700      C2707   1.350       .  A
N2701      N2703   1.317       .  A
N2701      N2702   1.324       .  A
N2701     Mn2717   2.211       .  S
N2702      C2708   1.354       .  A
N2703      N2704   1.318       .  A
N2703     Mn2728   2.195       .  S
N2704      C2708   1.348       .  A
N2705      N2706   1.321       .  A
N2705     Mn2717   2.202       .  S
N2706      C2707   1.353       .  A
N2709      N2715   1.316       .  A
N2709      N2710   1.318       .  A
N2709     Mn2739   2.192       .  S
N2710      C2718   1.348       .  A
N2711      N2712   1.323       .  A
N2711      N2713   1.316       .  A
N2711     Mn2717   2.212       .  S
N2712      C2719   1.355       .  A
N2713      N2714   1.318       .  A
N2713     Mn2739   2.189       .  S
N2714      C2719   1.348       .  A
N2715      N2716   1.321       .  A
N2715     Mn2717   2.202       .  S
N2716      C2718   1.353       .  A
Mn2717    Cl2741   2.572       .  S
N2720      N2721   1.319       .  A
N2720      N2726   1.316       .  A
N2720     Mn2728   2.200       .  S
N2721      C2729   1.350       .  A
N2722      N2724   1.316       .  A
N2722      N2723   1.320       .  A
N2722     Mn2740   2.197       .  S
N2723      C2730   1.352       .  A
N2724      N2725   1.319       .  A
N2724     Mn2728   2.194       .  S
N2725      C2730   1.349       .  A
N2726      N2727   1.321       .  A
N2726     Mn2740   2.198       .  S
N2727      C2729   1.352       .  A
Mn2728    Cl2741   2.513       .  S
N2731      N2732   1.319       .  A
N2731      N2737   1.316       .  A
N2731     Mn2739   2.193       .  S
N2732      C2742   1.350       .  A
N2733      N2734   1.320       .  A
N2733      N2735   1.316       .  A
N2733     Mn2740   2.195       .  S
N2734      C2743   1.351       .  A
N2735      N2736   1.319       .  A
N2735     Mn2739   2.197       .  S
N2736      C2743   1.351       .  A
N2737      N2738   1.320       .  A
N2737     Mn2740   2.200       .  S
N2738      C2742   1.352       .  A
Mn2739    Cl2741   2.514       .  S
Mn2740    Cl2741   2.566       .  S
C2742      C2746   1.462       .  S
C2743      C2754   1.460       .  S
C2744      N2745   1.358       .  A
C2744      N2749   1.362       .  A
C2744      C2884   1.482       .  S
N2745      C2746   1.354       .  A
C2746      N2747   1.356       .  A
N2747      C2748   1.357       .  A
C2748      N2749   1.359       .  A
C2750      N2751   1.360       .  A
C2750      N2755   1.360       .  A
C2750      C2980   1.484       .  S
N2751      C2752   1.356       .  A
C2752      N2753   1.355       .  A
C2752      C2799   1.459       .  S
N2753      C2754   1.355       .  A
C2754      N2755   1.357       .  A
N2756      N2762   1.316       .  A
N2756     Mn2785   2.204       .  S
N2758      N2760   1.315       .  A
N2758     Mn2774   2.188       .  S
N2760     Mn2785   2.194       .  S
N2762      N2763   1.321       .  A
N2762     Mn2774   2.199       .  S
N2763      C2764   1.351       .  A
N2766      N2772   1.317       .  A
N2766     Mn2796   2.206       .  S
N2767      C2775   1.352       .  A
N2768      N2769   1.320       .  A
N2768      N2770   1.316       .  A
N2768     Mn2774   2.190       .  S
N2769      C2776   1.351       .  A
N2770      N2771   1.321       .  A
N2770     Mn2796   2.209       .  S
N2771      C2776   1.353       .  A
N2772     Mn2774   2.201       .  S
N2773      C2775   1.351       .  A
Mn2774    Cl2798   2.564       .  S
N2777      N2778   1.320   1_455  A
N2779      N2781   1.316       .  A
N2779      N2780   1.322       .  A
N2779     Mn2797   2.204       .  S
N2780      C2787   1.353       .  A
N2781     Mn2785   2.196       .  S
N2783     Mn2797   2.200       .  S
Mn2785    Cl2798   2.521       .  S
N2788      N2789   1.318       .  A
N2788      N2794   1.317       .  A
N2788     Mn2796   2.200       .  S
N2789      C2799   1.350       .  A
N2790      N2792   1.317       .  A
N2790     Mn2797   2.202       .  S
N2791      C2800   1.352       .  A
N2792     Mn2796   2.209       .  S
N2793      C2800   1.351       .  A
N2794      N2795   1.320       .  A
N2794     Mn2797   2.197       .  S
N2795      C2799   1.352       .  A
Mn2796    Cl2798   2.521       .  S
Mn2797    Cl2798   2.569       .  S
C2801      C2802   1.398       .  A
C2801      C2806   1.403       .  A
C2801      H2817   1.084       .  S
C2802      C2803   1.404       .  A
C2802      H2818   1.084       .  S
C2803      C2813   1.403       .  A
C2803      C2804   1.411       .  A
C2804      C2810   1.411       .  A
C2804      C2805   1.412       .  A
C2805      C2806   1.412       .  A
C2806      C2814   1.402       .  A
C2807      C2816   1.406   1_545  A
C2807      C2808   1.404   1_545  A
C2808      C2809   1.401   1_565  A
C2808      H2819   1.084       .  S
C2809      H2820   1.084   1_545  S
C2810      C2811   1.404       .  A
C2811      C2812   1.409       .  A
C2811      H2821   1.084       .  S
C2812      C2813   1.409       .  A
C2813      H2822   1.084       .  S
C2814      H2823   1.084       .  S
C2815      C2816   1.406       .  A
C2816      H2824   1.084       .  S
C2825      C2826   1.400       .  A
C2825      C2830   1.404       .  A
C2825      H2841   1.084       .  S
C2826      C2827   1.404       .  A
C2826      H2842   1.084       .  S
C2827      C2837   1.403       .  A
C2827      C2828   1.412       .  A
C2828      C2834   1.413       .  A
C2828      C2829   1.410       .  A
C2829      C2831   1.410       .  A
C2829      C2830   1.412       .  A
C2830      C2838   1.405       .  A
C2831      C2840   1.397       .  A
C2831      C2832   1.403       .  A
C2832      C2833   1.396       .  A
C2832      H2843   1.084       .  S
C2833      C2834   1.402       .  A
C2833      H2844   1.084       .  S
C2834      C2835   1.399       .  A
C2835      C2836   1.401       .  A
C2835      H2845   1.085       .  S
C2836      C2837   1.403       .  A
C2837      H2846   1.084       .  S
C2838      C2839   1.409       .  A
C2838      H2847   1.084       .  S
C2839      C2840   1.408       .  A
C2840      H2848   1.084       .  S
C2849      C2850   1.398       .  A
C2849      C2854   1.403       .  A
C2849      H2865   1.084       .  S
C2850      C2851   1.403       .  A
C2850      H2866   1.084       .  S
C2851      C2861   1.402       .  A
C2851      C2852   1.411       .  A
C2852      C2858   1.411       .  A
C2852      C2853   1.412       .  A
C2853      C2855   1.413       .  A
C2853      C2854   1.412       .  A
C2854      C2862   1.401       .  A
C2855      C2864   1.404       .  A
C2855      C2856   1.403       .  A
C2856      C2857   1.400       .  A
C2856      H2867   1.084       .  S
C2857      C2858   1.404       .  A
C2857      H2868   1.084       .  S
C2858      C2859   1.404       .  A
C2859      C2860   1.409       .  A
C2859      H2869   1.084       .  S
C2860      C2861   1.408       .  A
C2861      H2870   1.084       .  S
C2862      C2863   1.404       .  A
C2862      H2871   1.085       .  S
C2863      C2864   1.404       .  A
C2864      H2872   1.084       .  S
C2873      C2874   1.398       .  A
C2873      C2878   1.403       .  A
C2873      H2889   1.084       .  S
C2874      H2890   1.084       .  S
C2875      C2885   1.402       .  A
C2875      C2876   1.412       .  A
C2876      C2882   1.410       .  A
C2876      C2877   1.410       .  A
C2877      C2879   1.413       .  A
C2878      C2886   1.400       .  A
C2879      C2888   1.402       .  A
C2879      C2880   1.403       .  A
C2880      C2881   1.398       .  A
C2880      H2891   1.084       .  S
C2881      C2882   1.404       .  A
C2881      H2892   1.084       .  S
C2882      C2883   1.400       .  A
C2883      C2884   1.409       .  A
C2883      H2893   1.084       .  S
C2884      C2885   1.407       .  A
C2885      H2894   1.084   1_655  S
C2886      C2887   1.402       .  A
C2886      H2895   1.085       .  S
C2888      H2896   1.084       .  S
C2897      C2898   1.397       .  A
C2897      C2902   1.403       .  A
C2897      H2913   1.084       .  S
C2898      C2899   1.403       .  A
C2898      H2914   1.084       .  S
C2899      C2909   1.400       .  A
C2899      C2900   1.411       .  A
C2900      C2906   1.411       .  A
C2900      C2901   1.410       .  A
C2901      C2903   1.413       .  A
C2901      C2902   1.412       .  A
C2902      C2910   1.400       .  A
C2903      C2912   1.402       .  A
C2903      C2904   1.403       .  A
C2904      C2905   1.399       .  A
C2904      H2915   1.084       .  S
C2905      C2906   1.404       .  A
C2905      H2916   1.084       .  S
C2906      C2907   1.402       .  A
C2907      C2908   1.408       .  A
C2907      H2917   1.084       .  S
C2908      C2909   1.406       .  A
C2909      H2918   1.084       .  S
C2910      C2911   1.403       .  A
C2910      H2919   1.085       .  S
C2911      C2912   1.403       .  A
C2912      H2920   1.084       .  S
C2921      C2922   1.399       .  A
C2921      C2926   1.404       .  A
C2921      H2937   1.084       .  S
C2922      C2923   1.404   1_455  A
C2922      H2938   1.084       .  S
C2923      C2933   1.402       .  A
C2923      C2924   1.411       .  A
C2924      C2930   1.411       .  A
C2924      C2925   1.410       .  A
C2925      C2927   1.412       .  A
C2925      C2926   1.413   1_655  A
C2927      C2936   1.398       .  A
C2927      C2928   1.402       .  A
C2928      C2929   1.396       .  A
C2928      H2939   1.084       .  S
C2929      C2930   1.402       .  A
C2929      H2940   1.084       .  S
C2930      C2931   1.399       .  A
C2931      C2932   1.406       .  A
C2931      H2941   1.084       .  S
C2932      C2933   1.409       .  A
C2933      H2942   1.084   1_655  S
C2934      C2935   1.404       .  A
C2934      H2943   1.084       .  S
C2936      H2944   1.085       .  S
C2945      C2946   1.399       .  A
C2945      C2950   1.404       .  A
C2945      H2961   1.084       .  S
C2946      C2947   1.403       .  A
C2946      H2962   1.083       .  S
C2947      C2948   1.413       .  A
C2948      C2954   1.412       .  A
C2948      C2949   1.411       .  A
C2949      C2951   1.411       .  A
C2949      C2950   1.411       .  A
C2950      C2958   1.402       .  A
C2951      C2960   1.401       .  A
C2951      C2952   1.403       .  A
C2952      C2953   1.398       .  A
C2953      C2954   1.403       .  A
C2953      H2964   1.083       .  S
C2955      C2956   1.402   1_565  A
C2955      H2965   1.084       .  S
C2956      C2957   1.404       .  A
C2957      H2966   1.084       .  S
C2958      C2959   1.409       .  A
C2958      H2967   1.084       .  S
C2959      C2960   1.408       .  A
C2960      H2968   1.084       .  S
C2969      C2970   1.399       .  A
C2969      C2974   1.403       .  A
C2969      H2985   1.084       .  S
C2970      C2971   1.404       .  A
C2970      H2986   1.084       .  S
C2971      C2981   1.403       .  A
C2971      C2972   1.411       .  A
C2972      C2978   1.411       .  A
C2972      C2973   1.411       .  A
C2973      C2975   1.413       .  A
C2973      C2974   1.412       .  A
C2974      C2982   1.402       .  A
C2975      C2984   1.402       .  A
C2975      C2976   1.403       .  A
C2976      C2977   1.398       .  A
C2976      H2987   1.084       .  S
C2977      C2978   1.403       .  A
C2977      H2988   1.084       .  S
C2978      C2979   1.401       .  A
C2979      C2980   1.408       .  A
C2979      H2989   1.084       .  S
C2980      C2981   1.409       .  A
C2981      H2990   1.084       .  S
C2982      C2983   1.403       .  A
C2982      H2991   1.084       .  S
C2983      C2984   1.403       .  A
C2984      H2992   1.084       .  S
C2993      C2994   1.396       .  A
C2993      C2998   1.402       .  A
C2993      H3009   1.084       .  S
C2994      C2995   1.403       .  A
C2994      H3010   1.084       .  S
C2995      C3005   1.399       .  A
C2995      C2996   1.411       .  A
C2996      C3002   1.412       .  A
C2996      C2997   1.410       .  A
C2997      C2999   1.413       .  A
C2997      C2998   1.412       .  A
C2998      C3006   1.398       .  A
C2999      C3000   1.404       .  A
C3000      C3001   1.400       .  A
C3001      C3002   1.404       .  A
C3001      H3012   1.084       .  S
C3002      C3003   1.405       .  A
C3003      C3004   1.408       .  A
C3003      H3013   1.084       .  S
C3004      C3005   1.406       .  A
C3005      H3014   1.084       .  S
C3007      C3008   1.404   1_565  A
C3008      H3016   1.084       .  S
C3017      C3018   1.400       .  A
C3017      C3022   1.405       .  A
C3017      H3033   1.084       .  S
C3018      C3019   1.404       .  A
C3018      H3034   1.084       .  S
C3019      C3029   1.406       .  A
C3019      C3020   1.413       .  A
C3020      C3026   1.412       .  A
C3020      C3021   1.413       .  A
C3021      C3023   1.412       .  A
C3021      C3022   1.410       .  A
C3022      C3030   1.404       .  A
C3023      C3032   1.405       .  A
C3023      C3024   1.404       .  A
C3024      C3025   1.399       .  A
C3024      H3035   1.083       .  S
C3025      C3026   1.403       .  A
C3025      H3036   1.084       .  S
C3026      C3027   1.403       .  A
C3027      C3028   1.403       .  A
C3027      H3037   1.084       .  S
C3028      C3029   1.406       .  A
C3029      H3038   1.084       .  S
C3030      C3031   1.411       .  A
C3030      H3039   1.084       .  S
C3031      C3032   1.409       .  A
C3032      H3040   1.084       .  S
C3041      C3042   1.397       .  A
C3041      C3046   1.403       .  A
C3041      H3057   1.084       .  S
C3043      C3053   1.402       .  A
C3043      C3044   1.411       .  A
C3044      C3050   1.411       .  A
C3044      C3045   1.412       .  A
C3045      C3047   1.413       .  A
C3046      C3054   1.400       .  A
C3047      C3056   1.406       .  A
C3047      C3048   1.404       .  A
C3048      C3049   1.400       .  A
C3048      H3059   1.084       .  S
C3049      C3050   1.404       .  A
C3049      H3060   1.084       .  S
C3050      C3051   1.404       .  A
C3051      C3052   1.409       .  A
C3051      H3061   1.084       .  S
C3052      C3053   1.407       .  A
C3053      H3062   1.084       .  S
C3054      C3055   1.403       .  A
C3054      H3063   1.085       .  S
C3056      H3064   1.084       .  S
C3065      C3066   1.400       .  A
C3065      C3070   1.405       .  A
C3065      H3081   1.084       .  S
C3066      C3067   1.404       .  A
C3066      H3082   1.084       .  S
C3067      C3077   1.405       .  A
C3067      C3068   1.413       .  A
C3068      C3074   1.412       .  A
C3068      C3069   1.412       .  A
C3069      C3071   1.411       .  A
C3069      C3070   1.411       .  A
C3070      C3078   1.404       .  A
C3071      C3080   1.402       .  A
C3071      C3072   1.403       .  A
C3072      C3073   1.398       .  A
C3072      H3083   1.084       .  S
C3073      C3074   1.402       .  A
C3073      H3084   1.084       .  S
C3074      C3075   1.401       .  A
C3075      C3076   1.402       .  A
C3075      H3085   1.084       .  S
C3076      C3077   1.405       .  A
C3077      H3086   1.084       .  S
C3078      C3079   1.411       .  A
C3078      H3087   1.084       .  S
C3079      C3080   1.407       .  A
C3080      H3088   1.084       .  S
C3089      C3090   1.399       .  A
C3089      C3094   1.403       .  A
C3089      H3105   1.084       .  S
C3090      C3091   1.404       .  A
C3090      H3106   1.084       .  S
C3091      C3101   1.403       .  A
C3091      C3092   1.411       .  A
C3092      C3098   1.411       .  A
C3092      C3093   1.413       .  A
C3093      C3094   1.412       .  A
C3094      C3102   1.402       .  A
C3095      C3104   1.404       .  A
C3095      C3096   1.403       .  A
C3096      C3097   1.400       .  A
C3096      H3107   1.083       .  S
C3097      H3108   1.084       .  S
C3098      C3099   1.404       .  A
C3099      C3100   1.408       .  A
C3099      H3109   1.084       .  S
C3100      C3101   1.410       .  A
C3101      H3110   1.084       .  S
C3102      H3111   1.085       .  S
C3103      C3104   1.403       .  A
C3104      H3112   1.084       .  S
C3113      C3114   1.400       .  A
C3113      C3118   1.403       .  A
C3113      H3129   1.084       .  S
C3114      C3115   1.404       .  A
C3114      H3130   1.084       .  S
C3115      C3125   1.404       .  A
C3115      C3116   1.411       .  A
C3116      C3122   1.411       .  A
C3116      C3117   1.412       .  A
C3117      C3119   1.412       .  A
C3117      C3118   1.413       .  A
C3118      C3126   1.404       .  A
C3119      C3128   1.402       .  A
C3119      C3120   1.403       .  A
C3120      C3121   1.399       .  A
C3120      H3131   1.084       .  S
C3121      C3122   1.404       .  A
C3121      H3132   1.084       .  S
C3122      C3123   1.403       .  A
C3123      C3124   1.408       .  A
C3123      H3133   1.084       .  S
C3124      C3125   1.410       .  A
C3125      H3134   1.084       .  S
C3126      C3127   1.405       .  A
C3126      H3135   1.084       .  S
C3127      C3128   1.403       .  A
C3128      H3136   1.084       .  S
C3137      C3138   1.400       .  A
C3137      C3142   1.403       .  A
C3137      H3153   1.084       .  S
C3138      C3139   1.405       .  A
C3138      H3154   1.084       .  S
C3139      C3149   1.404       .  A
C3139      C3140   1.410       .  A
C3140      C3146   1.412       .  A
C3140      C3141   1.412       .  A
C3141      C3143   1.412       .  A
C3141      C3142   1.413       .  A
C3142      C3150   1.404       .  A
C3143      C3152   1.401       .  A
C3143      C3144   1.403       .  A
C3144      C3145   1.398       .  A
C3144      H3155   1.084       .  S
C3145      C3146   1.403       .  A
C3145      H3156   1.083       .  S
C3146      C3147   1.404       .  A
C3147      C3148   1.408       .  A
C3147      H3157   1.084       .  S
C3148      C3149   1.411       .  A
C3149      H3158   1.084       .  S
C3150      C3151   1.405       .  A
C3150      H3159   1.084       .  S
C3151      C3152   1.402       .  A
C3152      H3160   1.084       .  S
C3161      C3162   1.397       .  A
C3161      C3166   1.402       .  A
C3161      H3177   1.084       .  S
C3162      H3178   1.084       .  S
C3163      C3173   1.401       .  A
C3163      C3164   1.411       .  A
C3164      C3170   1.411       .  A
C3164      C3165   1.411       .  A
C3165      C3167   1.413       .  A
C3166      C3174   1.400       .  A
C3167      C3176   1.403       .  A
C3167      C3168   1.403       .  A
C3168      C3169   1.399       .  A
C3168      H3179   1.084       .  S
C3169      C3170   1.404       .  A
C3169      H3180   1.084       .  S
C3170      C3171   1.403       .  A
C3171      C3172   1.409       .  A
C3171      H3181   1.084       .  S
C3172      C3173   1.408       .  A
C3173      H3182   1.084       .  S
C3174      C3175   1.401       .  A
C3174      H3183   1.085       .  S
C3176      H3184   1.084       .  S
