geometry optimzed in LAMMPS
_audit_creation_date              2020-12-01 
_audit_creation_method            'lammps2cif' 
_symmetry_space_group_name_H-M    'P1' 
_symmetry_Int_Tables_number       1 
_symmetry_cell_setting            triclinic 
loop_ 
_symmetry_equiv_pos_as_xyz 
  x,y,z 
_cell_length_a                    52.01926083 
_cell_length_b                    52.8573500962535 
_cell_length_c                    52.39208438998588 
_cell_angle_alpha                 89.6698801932202 
_cell_angle_beta                  90.42649891828965 
_cell_angle_gamma                 89.82371088025393 
loop_ 
_atom_site_label 
_atom_site_type_symbol 
_atom_site_fract_x 
_atom_site_fract_y 
_atom_site_fract_z 
_atom_site_charge 
C1          C  0.78673673  0.83750038  0.02217447     0.79700
N2          N  0.79919526  0.86001701  0.02130265    -0.78600
C3          C  0.80974149  0.86865756  0.99945990     0.82100
N4          N  0.80781285  0.85446942  0.97811158    -0.78600
C5          C  0.79500666  0.83207948  0.97836981     0.82200
N6          N  0.78439295  0.82356303  0.00050107    -0.80300
C7          C  0.77480908  0.22450177  0.02548687     0.79700
N8          N  0.75955802  0.23094890  0.00501093    -0.78600
C9          C  0.76300120  0.21919007  0.98196083     0.82100
N10         N  0.78150580  0.20105547  0.97983898    -0.78600
C11         C  0.79682028  0.19488736  0.99995117     0.82200
N12         N  0.79340320  0.20672675  0.02247227    -0.80300
C13         C  0.16911076  0.83130560  0.02459664     0.79700
N14         N  0.14865313  0.84671386  0.02029961    -0.78600
C15         C  0.14423140  0.85702903  0.99703441     0.82100
N16         N  0.16044019  0.85189715  0.97761196    -0.78600
C17         C  0.18069683  0.83589275  0.98129185     0.82200
N18         N  0.18508251  0.82567532  0.00490569    -0.80300
C19         C  0.78253487  0.05412258  0.80441210     0.79700
N20         N  0.80096145  0.05041703  0.82247732    -0.78600
C21         C  0.81212782  0.02759676  0.82625267     0.82100
N22         N  0.80465761  0.00785441  0.81156128    -0.78600
C23         C  0.78585976  0.01086500  0.79346631     0.82200
N24         N  0.77479482  0.03416061  0.78986866    -0.80300
C25         C  0.95739945  0.21322868  0.77855504     0.79700
N26         N  0.98118101  0.22253502  0.77285245    -0.78600
C27         C  0.00178059  0.21662639  0.78810154     0.82100
N28         N  0.99834768  0.20180442  0.80910926    -0.78600
C29         C  0.97492961  0.19223928  0.81477121     0.82200
N30         N  0.95465773  0.19795354  0.79935595    -0.80300
C31         C  0.95603891  0.84727275  0.79668991     0.79700
N32         N  0.95877965  0.86435918  0.81590596    -0.78600
C33         C  0.98254993  0.87203222  0.82357860     0.82100
N34         N  0.00366898  0.86254248  0.81176929    -0.78600
C35         C  0.00117191  0.84559989  0.79243306     0.82200
N36         N  0.97734662  0.83794210  0.78512579    -0.80300
C37         C  0.18047037  0.04226693  0.80385934     0.79700
N38         N  0.19362917  0.02017615  0.80089538    -0.78600
C39         C  0.18962479  0.00069491  0.81753184     0.82100
N40         N  0.17302411  0.00377645  0.83706542    -0.78600
C41         C  0.16004162  0.02568562  0.84002483     0.82200
N42         N  0.16361951  0.04481186  0.82325640    -0.80300
C43         C  0.96545282  0.80714484  0.16706855     0.79700
N44         N  0.98987004  0.80045917  0.17439762    -0.78600
C45         C  0.01045603  0.81375918  0.16550375     0.82100
N46         N  0.00624436  0.83401030  0.14995425    -0.78600
C47         C  0.98225165  0.84077984  0.14257399     0.82200
N48         N  0.96191456  0.82718436  0.15094278    -0.80300
C49         C  0.78014009  0.05244268  0.19540957     0.79700
N50         N  0.79801013  0.05046772  0.17673540    -0.78600
C51         C  0.80269923  0.02800137  0.16527723     0.82100
N52         N  0.78934649  0.00720618  0.17269210    -0.78600
C53         C  0.77166203  0.00866539  0.19166394     0.82200
N54         N  0.76716306  0.03137784  0.20296514    -0.80300
C55         C  0.96472155  0.20477702  0.22983247     0.79700
N56         N  0.98736402  0.21702995  0.23468022    -0.78600
C57         C  0.00806668  0.21293999  0.21919316     0.82100
N58         N  0.00572065  0.19697099  0.19900513    -0.78600
C59         C  0.98340068  0.18468171  0.19432798     0.82200
N60         N  0.96321239  0.18866885  0.20983184    -0.80300
Zr61       Zr  0.26774063  0.29910382  0.29061677     2.17500
O62         O  0.30336633  0.29823272  0.32118653    -0.51900
O63         O  0.25895719  0.34367999  0.29521130    -0.75100
O64         O  0.30695496  0.31620974  0.27289644    -0.81900
O65         O  0.21781757  0.28123619  0.34106036    -0.83600
O66         O  0.31335041  0.30092663  0.23287020    -0.79300
O67         O  0.25728449  0.29878446  0.33572455    -0.90900
O68         O  0.22897163  0.35568132  0.26584504    -0.76900
O69         O  0.26021087  0.31089338  0.24723816    -0.86300
O70         O  0.22256442  0.30576858  0.28769286    -0.86000
O71         O  0.28380034  0.26481013  0.26541415    -0.72800
O72         O  0.24861191  0.25992819  0.30310680    -0.84900
Zr73       Zr  0.21041725  0.24336568  0.23115299     2.26400
Zr74       Zr  0.27482050  0.27621633  0.22169973     2.06300
Zr75       Zr  0.20324069  0.26629740  0.29916599     2.10000
Zr76       Zr  0.21512944  0.31739147  0.24425290     1.78800
O77         O  0.19536051  0.23010262  0.32698430    -0.93700
O78         O  0.22744462  0.34763859  0.21129207    -0.41500
O79         O  0.19534802  0.27825917  0.25573797    -0.78200
O80         O  0.22921535  0.28290541  0.21793601    -0.96900
O81         O  0.25558960  0.23687346  0.23396908    -0.90200
O82         O  0.21800783  0.23121218  0.27433831    -0.93000
C83         C  0.24464362  0.36031687  0.28424274     1.00700
C84         C  0.23833807  0.29183568  0.34971722     1.13700
C85         C  0.32018367  0.31404517  0.25246066     1.04500
O86         O  0.28035972  0.30595809  0.18653235    -0.95200
O87         O  0.26306320  0.25611817  0.18061918    -0.90900
O88         O  0.22451232  0.23756500  0.18792657    -0.84000
C89         C  0.24349308  0.24286202  0.17351195     1.11100
O90         O  0.29574723  0.22459749  0.31151269    -0.97100
Zr91       Zr  0.26362171  0.22584283  0.27740967     1.88900
O92         O  0.21637773  0.19760447  0.23158312    -0.73800
O93         O  0.31279632  0.25110900  0.21198158    -0.53000
O94         O  0.30394854  0.20807261  0.26232233    -0.97700
O95         O  0.25237140  0.19578189  0.31094963    -0.54900
O96         O  0.25111974  0.18734762  0.25598192    -0.74300
C97         C  0.23280367  0.18162328  0.24061607     0.98000
O98         O  0.17533679  0.23720609  0.20060315    -0.63100
O99         O  0.16840792  0.29031995  0.31842514    -0.57900
O100        O  0.16532354  0.24133835  0.24289787    -0.94600
O101        O  0.16043620  0.25428962  0.28381890    -0.93000
O102        O  0.17552211  0.33510081  0.26116309    -0.93400
O103        O  0.18265934  0.32138446  0.21072215    -0.92200
C104        C  0.15138924  0.24629674  0.26241188     1.16900
H105        H  0.21673604  0.31872207  0.29923969     0.32800
H106        H  0.22463152  0.28663720  0.20040431     0.43700
H107        H  0.20881925  0.21594103  0.27859285     0.37200
H108        H  0.30216149  0.26315782  0.26799387     0.33700
H109        H  0.21671615  0.36278861  0.21450046     0.25500
H110        H  0.30723572  0.23334746  0.21422972     0.31400
H111        H  0.30516567  0.19125182  0.27067036     0.37300
H112        H  0.16298324  0.32105643  0.26050172     0.31800
H113        H  0.16678569  0.28338437  0.33593596     0.30700
H114        H  0.18003001  0.22173457  0.31962121     0.32300
H115        H  0.26431561  0.18137017  0.30859040     0.31300
H116        H  0.17370667  0.30487644  0.21075598     0.35300
H117        H  0.17721655  0.25066620  0.18752267     0.28000
H118        H  0.30981284  0.31582344  0.32203809     0.32300
H119        H  0.28872197  0.23550130  0.32511278     0.35100
H120        H  0.17532321  0.30758110  0.32077572     0.27700
H121        H  0.17906660  0.22116094  0.19166486     0.40600
H122        H  0.27337608  0.32213453  0.19294298     0.30700
H123        H  0.24507861  0.35292199  0.21603207     0.38300
H124        H  0.23533231  0.18903822  0.30599882     0.30100
H125        H  0.31509001  0.25312782  0.19334105     0.30200
H126        H  0.31723405  0.28848784  0.31286762     0.30500
C127        C  0.20224755  0.04698580  0.17854521     0.79700
N128        N  0.18216544  0.04358566  0.16226975    -0.78600
C129        C  0.17616475  0.02043754  0.15324214     0.82100
N130        N  0.19060307  0.00024253  0.16054034    -0.78600
C131        C  0.21058751  0.00293154  0.17727766     0.82200
N132        N  0.21631672  0.02646522  0.18646799    -0.80300
Zr133      Zr  0.26464741  0.74990430  0.28192553     2.17500
O134        O  0.29655359  0.71621019  0.27879610    -0.51900
O135        O  0.26358039  0.75147053  0.32768468    -0.75100
O136        O  0.30674083  0.76561729  0.29358791    -0.81900
O137        O  0.21111949  0.70115965  0.27230466    -0.83600
O138        O  0.31298946  0.80441372  0.27566506    -0.79300
O139        O  0.24979916  0.70783684  0.29171889    -0.90900
O140        O  0.23413323  0.78042922  0.34036488    -0.76900
O141        O  0.26036476  0.79360802  0.29124493    -0.86300
O142        O  0.22060850  0.75546073  0.29251442    -0.86000
O143        O  0.27882959  0.77127099  0.24420103    -0.72800
O144        O  0.24102395  0.73555587  0.24545711    -0.84900
Zr145      Zr  0.20583819  0.80775379  0.22619491     2.26400
Zr146      Zr  0.27302706  0.81550216  0.25322908     2.06300
Zr147      Zr  0.19674791  0.74249124  0.25576760     2.10000
Zr148      Zr  0.21629199  0.79935101  0.30122093     1.78800
O149        O  0.17825532  0.70741928  0.23206456    -0.93700
O150        O  0.23377159  0.83597489  0.32330206    -0.41500
O151        O  0.19185238  0.78666365  0.26435341    -0.78200
O152        O  0.22863905  0.82214421  0.26332534    -0.96900
O153        O  0.24986178  0.80184259  0.21619910    -0.90200
O154        O  0.20998399  0.76378830  0.21766846    -0.93000
C155        C  0.25132316  0.76342128  0.34495638     1.00700
C156        C  0.23066786  0.69379605  0.28567302     1.13700
C157        C  0.32034179  0.78538808  0.28932159     1.04500
O158        O  0.28157130  0.85088726  0.28161329    -0.95200
O159        O  0.26208273  0.85460095  0.22984513    -0.90900
O160        O  0.22253033  0.84822538  0.21222285    -0.84000
C161        C  0.24274232  0.86161666  0.21598949     1.11100
O162        O  0.28292877  0.72158583  0.20471469    -0.97100
Zr163      Zr  0.25413972  0.75783528  0.20796043     1.88900
O164        O  0.20631518  0.80435322  0.18001012    -0.73800
O165        O  0.30892201  0.82468140  0.22507666    -0.53000
O166        O  0.29360997  0.76734703  0.18522016    -0.97700
O167        O  0.23590436  0.72401975  0.18209892    -0.54900
O168        O  0.23895433  0.77806977  0.16907029    -0.74300
C169        C  0.22050355  0.79329727  0.16347384     0.98000
O170        O  0.17355598  0.84105901  0.23043760    -0.63100
O171        O  0.16599514  0.73716986  0.29019369    -0.57900
O172        O  0.16275733  0.79371959  0.21702092    -0.94600
O173        O  0.15620667  0.75500474  0.23481144    -0.93000
O174        O  0.18032742  0.78804037  0.32848150    -0.93400
O175        O  0.18216652  0.83082929  0.30440403    -0.92200
C176        C  0.14857871  0.77453039  0.22196281     1.16900
H177        H  0.21594799  0.74526623  0.30714258     0.32800
H178        H  0.22541080  0.83996201  0.26570893     0.43700
H179        H  0.19921519  0.75889448  0.20344319     0.37200
H180        H  0.29678282  0.76760395  0.24129032     0.33700
H181        H  0.22305842  0.83768195  0.33874595     0.25500
H182        H  0.32020764  0.83608873  0.23501825     0.31400
H183        H  0.29411740  0.78604918  0.18435519     0.37300
H184        H  0.18136122  0.76942486  0.33038172     0.31800
H185        H  0.15309686  0.75074179  0.28738154     0.30700
H186        H  0.18705703  0.70783089  0.21539084     0.32300
H187        H  0.22019236  0.73117685  0.17405168     0.31300
H188        H  0.18513697  0.84274228  0.29008947     0.35300
H189        H  0.16125618  0.83453381  0.24320952     0.28000
H190        H  0.30508812  0.71548830  0.29574946     0.32300
H191        H  0.28066073  0.71210077  0.22088987     0.35100
H192        H  0.15678411  0.72135994  0.28597672     0.27700
H193        H  0.18241440  0.85499767  0.23942791     0.40600
H194        H  0.26497370  0.85997684  0.28299228     0.30700
H195        H  0.25073653  0.83029415  0.32987576     0.38300
H196        H  0.22948336  0.71152098  0.19464365     0.30100
H197        H  0.31868560  0.80861782  0.22400327     0.30200
H198        H  0.30980341  0.72282959  0.26707183     0.30500
Zr199      Zr  0.77314825  0.26193541  0.22802379     2.17500
O200        O  0.80728068  0.27035723  0.19748718    -0.51900
O201        O  0.77444455  0.21622143  0.22428096    -0.75100
O202        O  0.81578219  0.25259409  0.24594707    -0.81900
O203        O  0.72046962  0.27394460  0.17825063    -0.83600
O204        O  0.81911587  0.26909241  0.28589093    -0.79300
O205        O  0.76185173  0.26046559  0.18281802    -0.90900
O206        O  0.74587263  0.19973528  0.25222502    -0.76900
O207        O  0.76719485  0.24788293  0.27076050    -0.86300
O208        O  0.72933537  0.24864623  0.23000215    -0.86000
O209        O  0.78317212  0.29767931  0.25432159    -0.72800
O210        O  0.74725437  0.29818558  0.21708161    -0.84900
Zr211      Zr  0.70767040  0.30628101  0.28952654     2.26400
Zr212      Zr  0.77627300  0.28361662  0.29735712     2.06300
Zr213      Zr  0.70320517  0.28508306  0.22038119     2.10000
Zr214      Zr  0.72361490  0.23461608  0.27271221     1.78800
O215        O  0.68704332  0.31302741  0.18681023    -0.93700
O216        O  0.73880526  0.20726790  0.30730528    -0.41500
O217        O  0.69673425  0.27062406  0.26334552    -0.78200
O218        O  0.73258051  0.26951297  0.30056952    -0.96900
O219        O  0.75096487  0.32001600  0.28692862    -0.90200
O220        O  0.71322578  0.32044603  0.24674648    -0.93000
C221        C  0.76324525  0.19745604  0.23512150     1.00700
C222        C  0.74186302  0.26566099  0.16909712     1.13700
C223        C  0.82848987  0.25774821  0.26643631     1.04500
O224        O  0.79032816  0.25240012  0.32888244    -0.95200
O225        O  0.76195583  0.29825765  0.33925645    -0.90900
O226        O  0.72112401  0.31257671  0.33337444    -0.84000
C227        C  0.74096113  0.30817589  0.34746406     1.11100
O228        O  0.78972306  0.34365060  0.21294623    -0.97100
Zr229      Zr  0.75661260  0.33346238  0.24391987     1.88900
O230        O  0.70673779  0.35196911  0.29276961    -0.73800
O231        O  0.80595125  0.31662931  0.31076719    -0.53000
O232        O  0.79116787  0.35975309  0.26053457    -0.97700
O233        O  0.73902881  0.35745754  0.20791761    -0.54900
O234        O  0.73535985  0.36863530  0.26491000    -0.74300
C235        C  0.71788609  0.37077685  0.28194907     0.98000
O236        O  0.67279439  0.29639874  0.31885146    -0.63100
O237        O  0.67156343  0.25356990  0.20771388    -0.57900
O238        O  0.66611235  0.31917555  0.27354647    -0.94600
O239        O  0.66201560  0.30541358  0.23259483    -0.93000
O240        O  0.68928941  0.21135844  0.25152082    -0.93400
O241        O  0.69061708  0.22184777  0.30284864    -0.92200
C242        C  0.65357279  0.31697671  0.25255504     1.16900
H243        H  0.72593167  0.23523791  0.21799832     0.32800
H244        H  0.72897394  0.26430427  0.31787844     0.43700
H245        H  0.70213437  0.33459447  0.24264593     0.37200
H246        H  0.80094102  0.30242135  0.25208806     0.33700
H247        H  0.73552638  0.18981237  0.30135274     0.25500
H248        H  0.81690122  0.30850747  0.32401918     0.31400
H249        H  0.78687033  0.36237280  0.27870595     0.37300
H250        H  0.69465815  0.19339143  0.25247694     0.31800
H251        H  0.68170638  0.23920907  0.20105402     0.30700
H252        H  0.67463941  0.30257889  0.17708925     0.32300
H253        H  0.72336934  0.36580759  0.21446495     0.31300
H254        H  0.67988824  0.23716850  0.30505320     0.35300
H255        H  0.66153253  0.28464658  0.30930347     0.28000
H256        H  0.81664417  0.25413036  0.19570741     0.32300
H257        H  0.80024699  0.32808021  0.21163507     0.35100
H258        H  0.66430142  0.24728866  0.22395693     0.27700
H259        H  0.68063969  0.28563901  0.33235238     0.40600
H260        H  0.80293838  0.26146868  0.33969659     0.30700
H261        H  0.75775287  0.20893306  0.30707958     0.38300
H262        H  0.73249596  0.34448950  0.19596540     0.30100
H263        H  0.81753874  0.31923024  0.29607961     0.30200
H264        H  0.81948902  0.28173278  0.20633525     0.30500
Zr265      Zr  0.71141305  0.74887031  0.27947628     2.17500
O266        O  0.67627618  0.71840516  0.27808767    -0.51900
O267        O  0.71123364  0.74680564  0.32571939    -0.75100
O268        O  0.72651916  0.70549003  0.28387001    -0.81900
O269        O  0.66399909  0.80445084  0.27489871    -0.83600
O270        O  0.76679886  0.70137058  0.26772678    -0.79300
O271        O  0.66680046  0.76225296  0.28310343    -0.90900
O272        O  0.73985022  0.77454703  0.34229633    -0.76900
O273        O  0.75592947  0.75110797  0.29011068    -0.86300
O274        O  0.71757119  0.79069440  0.29490467    -0.86000
O275        O  0.73382554  0.73889661  0.24074183    -0.72800
O276        O  0.69856605  0.77649135  0.24518729    -0.84900
Zr277      Zr  0.77244696  0.81171393  0.23268581     2.26400
Zr278      Zr  0.77883843  0.74281907  0.25131875     2.06300
Zr279      Zr  0.70613067  0.81866790  0.26045451     2.10000
Zr280      Zr  0.76205862  0.79290678  0.30550192     1.78800
O281        O  0.67043882  0.83871272  0.23773864    -0.93700
O282        O  0.79471763  0.77121298  0.33110181    -0.41500
O283        O  0.75071553  0.82178810  0.27151421    -0.78200
O284        O  0.78603908  0.78464828  0.26721175    -0.96900
O285        O  0.76602938  0.77009804  0.21717906    -0.90200
O286        O  0.72810491  0.80927438  0.22176886    -0.93000
C287        C  0.72216156  0.75776273  0.34468383     1.00700
C288        C  0.65407674  0.78309916  0.28134653     1.13700
C289        C  0.74665127  0.69251036  0.27853251     1.04500
O290        O  0.81500010  0.72899549  0.27772876    -0.95200
O291        O  0.81817236  0.75558239  0.22848612    -0.90900
O292        O  0.81279603  0.79668903  0.21637317    -0.84000
C293        C  0.82553923  0.77593136  0.21697306     1.11100
O294        O  0.68813505  0.73638954  0.19842876    -0.97100
Zr295      Zr  0.72158364  0.76740421  0.20695941     1.88900
O296        O  0.77073701  0.81582077  0.18687469    -0.73800
O297        O  0.78740682  0.71087192  0.21905253    -0.53000
O298        O  0.73472277  0.73527932  0.17656084    -0.97700
O299        O  0.68423176  0.78669668  0.18619396    -0.54900
O300        O  0.74133053  0.78852726  0.17077763    -0.74300
C301        C  0.75864092  0.80557755  0.16823457     0.98000
O302        O  0.80666820  0.84184244  0.24177799    -0.63100
O303        O  0.70150809  0.84820262  0.29570786    -0.57900
O304        O  0.75804447  0.85434133  0.22450247    -0.94600
O305        O  0.71798969  0.85945698  0.24087817    -0.93000
O306        O  0.75103709  0.82966031  0.33101662    -0.93400
O307        O  0.79930347  0.81945362  0.31395676    -0.92200
C308        C  0.73775274  0.86745478  0.22856935     1.16900
H309        H  0.70681466  0.79399761  0.30945156     0.32800
H310        H  0.80413234  0.78707037  0.27054147     0.43700
H311        H  0.72338773  0.82116645  0.20848574     0.37200
H312        H  0.72999664  0.72181964  0.23551944     0.33700
H313        H  0.79225466  0.77756376  0.34866698     0.25500
H314        H  0.80101389  0.70000915  0.22667004     0.31400
H315        H  0.74546962  0.72334593  0.18663109     0.37300
H316        H  0.75815438  0.82586270  0.34819959     0.31800
H317        H  0.69944743  0.83770315  0.31124569     0.30700
H318        H  0.66416467  0.85192848  0.24950686     0.32300
H319        H  0.69092816  0.79491092  0.17058470     0.31300
H320        H  0.80121941  0.82983719  0.29830627     0.35300
H321        H  0.79936114  0.85341895  0.25464338     0.28000
H322        H  0.67826801  0.70777458  0.29361806     0.32300
H323        H  0.68417701  0.72897807  0.21534273     0.35100
H324        H  0.71865390  0.85607381  0.29764420     0.27700
H325        H  0.81984101  0.83201219  0.25134188     0.40600
H326        H  0.82054429  0.74435721  0.28694201     0.30700
H327        H  0.78904367  0.75336371  0.33183642     0.38300
H328        H  0.67935164  0.80091417  0.19739964     0.30100
H329        H  0.77195432  0.69998910  0.21859544     0.30200
H330        H  0.68022819  0.70704421  0.26367677     0.30500
C331        C  0.20697746  0.21259260  0.02859691     0.79700
N332        N  0.18670577  0.19619133  0.02815775    -0.78600
C333        C  0.17742460  0.18731068  0.00557402     0.82100
N334        N  0.18866577  0.19474309  0.98352265    -0.78600
C335        C  0.20854988  0.21135825  0.98350477     0.82200
N336        N  0.21759556  0.22032088  0.00614529    -0.80300
Zr337      Zr  0.20505340  0.24140512  0.77955667     2.17500
O338        O  0.17517830  0.23832350  0.81515038    -0.51900
O339        O  0.20714444  0.19538737  0.77599491    -0.75100
O340        O  0.16036857  0.23726022  0.76601110    -0.81900
O341        O  0.25827366  0.25354650  0.83059173    -0.83600
O342        O  0.15576198  0.25044542  0.72492476    -0.79300
O343        O  0.21957349  0.23517946  0.82283307    -0.90900
O344        O  0.24148446  0.18499625  0.75155625    -0.76900
O345        O  0.21140265  0.23059806  0.73616487    -0.86300
O346        O  0.24983485  0.23294271  0.77597991    -0.86000
O347        O  0.19111619  0.27850616  0.75678698    -0.72800
O348        O  0.22646981  0.27938368  0.79309075    -0.84900
Zr349      Zr  0.26457777  0.29631772  0.72128162     2.26400
Zr350      Zr  0.19772202  0.26752516  0.71303715     2.06300
Zr351      Zr  0.27150079  0.27061589  0.78902920     2.10000
Zr352      Zr  0.25653405  0.22327841  0.73224093     1.78800
O353        O  0.28254478  0.30268912  0.82037402    -0.93700
O354        O  0.24115081  0.19947686  0.69550249    -0.41500
O355        O  0.27911685  0.26034683  0.74525321    -0.78200
O356        O  0.24275331  0.25887577  0.70778685    -0.96900
O357        O  0.21997758  0.30532805  0.72496992    -0.90200
O358        O  0.25852308  0.30715605  0.76486009    -0.93000
C359        C  0.22269147  0.17936088  0.76601653     1.00700
C360        C  0.23849683  0.24070624  0.83753669     1.13700
C361        C  0.14668435  0.24167299  0.74594602     1.04500
O362        O  0.18662912  0.23667211  0.68049159    -0.95200
O363        O  0.21051022  0.28460681  0.67183478    -0.90900
O364        O  0.24930708  0.30366032  0.67797609    -0.84000
C365        C  0.22993862  0.29736918  0.66403977     1.11100
O366        O  0.18037666  0.32171576  0.80005926    -0.97100
Zr367      Zr  0.21395549  0.31600406  0.76845869     1.88900
O368        O  0.25936381  0.34143695  0.71861690    -0.73800
O369        O  0.16355736  0.29743031  0.70212350    -0.53000
O370        O  0.17538994  0.33760729  0.75310098    -0.97700
O371        O  0.22878037  0.34143798  0.80427080    -0.54900
O372        O  0.22906024  0.35423749  0.74673452    -0.74300
C373        C  0.24541165  0.35849067  0.72894071     0.98000
O374        O  0.29933157  0.29176554  0.69053206    -0.63100
O375        O  0.30427286  0.24034880  0.80276486    -0.57900
O376        O  0.30650192  0.30820987  0.73804638    -0.94600
O377        O  0.31303917  0.28781468  0.77595826    -0.93000
O378        O  0.29404747  0.19898093  0.74606612    -0.93400
O379        O  0.29022974  0.22019326  0.70034147    -0.92200
C380        C  0.32062798  0.30173599  0.75725593     1.16900
H381        H  0.25492763  0.21895593  0.78684880     0.32800
H382        H  0.24652135  0.25531554  0.69013384     0.43700
H383        H  0.26862081  0.32173657  0.76951313     0.37200
H384        H  0.17318492  0.28209839  0.75985651     0.33700
H385        H  0.25229164  0.18426467  0.69501824     0.25500
H386        H  0.17202963  0.31094107  0.69212561     0.31400
H387        H  0.17678241  0.33738575  0.73427575     0.37300
H388        H  0.29274750  0.19803900  0.76488433     0.31800
H389        H  0.31384325  0.23625257  0.78704259     0.30700
H390        H  0.29353570  0.29374630  0.83304294     0.32300
H391        H  0.24395203  0.35069257  0.79784866     0.31300
H392        H  0.30352249  0.23237326  0.70593346     0.35300
H393        H  0.31223629  0.28071264  0.69904124     0.28000
H394        H  0.16516629  0.22266787  0.81233874     0.32300
H395        H  0.17950160  0.30524787  0.80911107     0.35100
H396        H  0.31649898  0.25035672  0.81313971     0.27700
H397        H  0.29225917  0.28101754  0.67677076     0.40600
H398        H  0.17235600  0.24462422  0.67071319     0.30700
H399        H  0.22412194  0.19296446  0.70064421     0.38300
H400        H  0.23591141  0.32901348  0.81665725     0.30100
H401        H  0.15264539  0.28846019  0.68955640     0.30200
H402        H  0.16274654  0.25237653  0.81271589     0.30500
Zr403      Zr  0.19758304  0.80202979  0.78586748     2.17500
O404        O  0.16156545  0.80075819  0.81538146    -0.51900
O405        O  0.20501201  0.84733112  0.78372870    -0.75100
O406        O  0.21108055  0.81484712  0.82771441    -0.81900
O407        O  0.14806552  0.79148565  0.73393722    -0.83600
O408        O  0.24879728  0.79493186  0.83724448    -0.79300
O409        O  0.15693427  0.81562939  0.76870172    -0.90900
O410        O  0.23578949  0.85488538  0.75414661    -0.76900
O411        O  0.24250753  0.80847307  0.78218653    -0.86300
O412        O  0.20433267  0.80897813  0.74162642    -0.86000
O413        O  0.21642603  0.76418633  0.80343668    -0.72800
O414        O  0.18159030  0.76448106  0.76572119    -0.84900
Zr415      Zr  0.25455473  0.74084146  0.73428776     2.26400
Zr416      Zr  0.26174427  0.77088290  0.79943903     2.06300
Zr417      Zr  0.18903054  0.77155185  0.72132817     2.10000
Zr418      Zr  0.24943396  0.81461015  0.73771656     1.78800
O419        O  0.15451092  0.74382052  0.70727069    -0.93700
O420        O  0.28890380  0.83648520  0.74940259    -0.41500
O421        O  0.23443130  0.77769007  0.71632350    -0.78200
O422        O  0.27039356  0.77792205  0.75498209    -0.96900
O423        O  0.24739292  0.73341375  0.77837195    -0.90200
O424        O  0.20948594  0.73399169  0.73735932    -0.93000
C425        C  0.21967634  0.86213572  0.77092686     1.00700
C426        C  0.14189950  0.80794262  0.75095215     1.13700
C427        C  0.22982805  0.80957480  0.84276540     1.04500
O428        O  0.29811276  0.79625549  0.81357068    -0.95200
O429        O  0.30167094  0.74809217  0.78998706    -0.90900
O430        O  0.29439731  0.72641793  0.75321538    -0.84000
C431        C  0.30835496  0.73242193  0.77250196     1.11100
O432        O  0.16749233  0.72717078  0.81208640    -0.97100
Zr433      Zr  0.20242017  0.72676216  0.78141614     1.88900
O434        O  0.25083418  0.69569734  0.73761607    -0.73800
O435        O  0.26665106  0.74169279  0.83531178    -0.53000
O436        O  0.21412203  0.70387586  0.82030989    -0.97700
O437        O  0.16532229  0.70297654  0.76620364    -0.54900
O438        O  0.21942962  0.68635724  0.76590324    -0.74300
C439        C  0.23710933  0.67994258  0.75013927     0.98000
O440        O  0.29052493  0.74322477  0.70472611    -0.63100
O441        O  0.17914821  0.80161424  0.68723769    -0.57900
O442        O  0.24057196  0.72936362  0.69202726    -0.94600
O443        O  0.20340757  0.75043260  0.68245007    -0.93000
O444        O  0.23417791  0.83913799  0.70110139    -0.93400
O445        O  0.28141530  0.81331044  0.70401226    -0.92200
C446        C  0.22220207  0.73562754  0.67678887     1.16900
H447        H  0.19512361  0.82373397  0.73549786     0.32800
H448        H  0.28867629  0.77954995  0.75231788     0.43700
H449        H  0.20423605  0.71952707  0.72744852     0.37200
H450        H  0.21187108  0.76257674  0.82123241     0.33700
H451        H  0.28774165  0.85304876  0.74052802     0.25500
H452        H  0.27489734  0.75178280  0.84895228     0.31400
H453        H  0.22794436  0.69203995  0.81526872     0.37300
H454        H  0.24640258  0.85339226  0.69969235     0.31800
H455        H  0.19592219  0.80504633  0.67914040     0.30700
H456        H  0.14956715  0.73436228  0.72282623     0.32300
H457        H  0.16499907  0.68761261  0.77710082     0.31300
H458        H  0.27429223  0.80151042  0.69118931     0.35300
H459        H  0.28389110  0.75280602  0.68977435     0.28000
H460        H  0.16053226  0.81795565  0.82270401     0.32300
H461        H  0.15977999  0.74425273  0.81039421     0.35100
H462        H  0.16950270  0.79166190  0.67440989     0.27700
H463        H  0.30292897  0.75495596  0.71280038     0.40600
H464        H  0.30857804  0.79881316  0.79806704     0.30700
H465        H  0.28686031  0.84056115  0.76769933     0.38300
H466        H  0.17017585  0.69666693  0.74914611     0.30100
H467        H  0.24896014  0.73874571  0.84146331     0.30200
H468        H  0.16735058  0.78978557  0.82970731     0.30500
Zr469      Zr  0.75615319  0.25494745  0.78300454     2.17500
O470        O  0.79067847  0.25456036  0.81475923    -0.51900
O471        O  0.75176391  0.20933314  0.77859202    -0.75100
O472        O  0.74044689  0.24210264  0.82447025    -0.81900
O473        O  0.80645478  0.26678350  0.73059606    -0.83600
O474        O  0.70228467  0.26167187  0.83226572    -0.79300
O475        O  0.79846479  0.24476204  0.76714140    -0.90900
O476        O  0.72244294  0.20133984  0.74743024    -0.76900
O477        O  0.71159424  0.24730933  0.77658836    -0.86300
O478        O  0.75143353  0.24947818  0.73824873    -0.86000
O479        O  0.73489712  0.29158888  0.79992361    -0.72800
O480        O  0.77141796  0.29353368  0.76405669    -0.84900
Zr481      Zr  0.69877057  0.31655976  0.72894988     2.26400
Zr482      Zr  0.68993513  0.28400628  0.79273484     2.06300
Zr483      Zr  0.76565941  0.28806051  0.71892009     2.10000
Zr484      Zr  0.70700901  0.24202331  0.73166075     1.78800
O485        O  0.79977840  0.31809856  0.70963880    -0.93700
O486        O  0.66832764  0.21808432  0.74136522    -0.41500
O487        O  0.72062436  0.28054426  0.71153025    -0.78200
O488        O  0.68413845  0.27775687  0.74769906    -0.96900
O489        O  0.70385453  0.32287658  0.77357776    -0.90200
O490        O  0.74339878  0.32452668  0.73489748    -0.93000
C491        C  0.73861991  0.19413080  0.76460632     1.00700
C492        C  0.81305480  0.25117959  0.74853866     1.13700
C493        C  0.72132088  0.24734170  0.83884576     1.04500
O494        O  0.65517183  0.25485300  0.80238853    -0.95200
O495        O  0.64871035  0.30385732  0.78070833    -0.90900
O496        O  0.65408119  0.32044692  0.74098121    -0.84000
C497        C  0.64015544  0.31486336  0.76032388     1.11100
O498        O  0.78136307  0.33069318  0.81316505    -0.97100
Zr499      Zr  0.74868980  0.32990089  0.77963857     1.88900
O500        O  0.70174000  0.36198743  0.73478199    -0.73800
O501        O  0.67872657  0.31202228  0.82771170    -0.53000
O502        O  0.73513089  0.35098083  0.81852524    -0.97700
O503        O  0.78614445  0.35427658  0.76660364    -0.54900
O504        O  0.73049355  0.37031044  0.76631175    -0.74300
C505        C  0.71403932  0.37728313  0.74931821     0.98000
O506        O  0.66433260  0.32428748  0.69791727    -0.63100
O507        O  0.77600977  0.25933744  0.68426463    -0.57900
O508        O  0.71402138  0.32619171  0.68676137    -0.94600
O509        O  0.75382732  0.31037073  0.67918408    -0.93000
O510        O  0.72407173  0.22108603  0.69411072    -0.93400
O511        O  0.67568747  0.24222847  0.69688867    -0.92200
C512        C  0.73367433  0.32309792  0.67256717     1.16900
H513        H  0.76144869  0.23529652  0.73227703     0.32800
H514        H  0.66623529  0.27480121  0.74374030     0.43700
H515        H  0.74848820  0.33952433  0.72564883     0.37200
H516        H  0.73848800  0.29303020  0.81797894     0.33700
H517        H  0.67055069  0.20180424  0.73236958     0.25500
H518        H  0.66686742  0.30198554  0.83842918     0.31400
H519        H  0.74310070  0.36795870  0.81767074     0.37300
H520        H  0.71671293  0.20383913  0.69467333     0.31800
H521        H  0.76075631  0.25979280  0.67285184     0.30700
H522        H  0.81114295  0.30914151  0.69757465     0.32300
H523        H  0.78382570  0.37100594  0.77469458     0.31300
H524        H  0.67183714  0.26035632  0.69382796     0.35300
H525        H  0.66772564  0.34115959  0.69034816     0.28000
H526        H  0.79036192  0.23743762  0.82252417     0.32300
H527        H  0.79251229  0.31593582  0.80961053     0.35100
H528        H  0.78961635  0.26810378  0.67453469     0.27700
H529        H  0.66711754  0.31208866  0.68392790     0.40600
H530        H  0.64851594  0.24956285  0.78549699     0.30700
H531        H  0.67007341  0.21365508  0.75968182     0.38300
H532        H  0.78373715  0.35761879  0.74813698     0.30100
H533        H  0.69464813  0.31335813  0.83807837     0.30200
H534        H  0.78485368  0.26605205  0.82842815     0.30500
Zr535      Zr  0.74520857  0.81509127  0.79045530     2.17500
O536        O  0.74194666  0.84860496  0.82207501    -0.51900
O537        O  0.79141549  0.81393803  0.79114157    -0.75100
O538        O  0.75373025  0.79918885  0.83307064    -0.81900
O539        O  0.73795032  0.86364983  0.73606808    -0.83600
O540        O  0.73565225  0.76038309  0.83841251    -0.79300
O541        O  0.75502641  0.85726158  0.77576359    -0.90900
O542        O  0.80576484  0.78971672  0.75863834    -0.76900
O543        O  0.75667093  0.77196077  0.78532540    -0.86300
O544        O  0.75634618  0.81126554  0.74669490    -0.86000
O545        O  0.70791996  0.79190071  0.80322234    -0.72800
O546        O  0.70810246  0.82908671  0.76703690    -0.84900
Zr547      Zr  0.69242566  0.75668649  0.72992209     2.26400
Zr548      Zr  0.71920185  0.74827599  0.79660203     2.06300
Zr549      Zr  0.71873633  0.82342899  0.72296665     2.10000
Zr550      Zr  0.76764234  0.76813803  0.74161030     1.78800
O551        O  0.68769946  0.85681045  0.71327625    -0.93700
O552        O  0.79524639  0.73561560  0.76052488    -0.41500
O553        O  0.73000407  0.77978481  0.71718398    -0.78200
O554        O  0.73047225  0.74345506  0.75263473    -0.96900
O555        O  0.68162310  0.76125847  0.77354159    -0.90200
O556        O  0.68145106  0.80009893  0.73488721    -0.93000
C557        C  0.80948305  0.80469013  0.77759493     1.00700
C558        C  0.75062889  0.87091166  0.75588841     1.13700
C559        C  0.74806993  0.77970567  0.84659635     1.04500
O560        O  0.75177909  0.71712028  0.80847576    -0.95200
O561        O  0.70166619  0.70734303  0.78334743    -0.90900
O562        O  0.68288308  0.71415897  0.74452002    -0.84000
C563        C  0.68850436  0.70008584  0.76383495     1.11100
O564        O  0.66596157  0.83381227  0.81424482    -0.97100
Zr565      Zr  0.67129040  0.80487930  0.77867420     1.88900
O566        O  0.64578837  0.75648567  0.73257089    -0.73800
O567        O  0.68786645  0.73398952  0.82781107    -0.53000
O568        O  0.64262503  0.79003549  0.81205765    -0.97700
O569        O  0.64995746  0.84344746  0.76395777    -0.54900
O570        O  0.63306339  0.78779864  0.75914105    -0.74300
C571        C  0.62840100  0.76957366  0.74382916     0.98000
O572        O  0.69892224  0.72575684  0.69612279    -0.63100
O573        O  0.74673758  0.83662547  0.68832152    -0.57900
O574        O  0.67969730  0.77267392  0.68849857    -0.94600
O575        O  0.70021943  0.81013838  0.68198594    -0.93000
O576        O  0.78856613  0.78151659  0.70238823    -0.93400
O577        O  0.77644400  0.73341549  0.71253932    -0.92200
C578        C  0.68584692  0.79173643  0.67463281     1.16900
H579        H  0.77061304  0.82210900  0.74227770     0.32800
H580        H  0.73414345  0.72591447  0.74911091     0.43700
H581        H  0.66695826  0.80484495  0.72424629     0.37200
H582        H  0.70417178  0.79491590  0.82097796     0.33700
H583        H  0.81203614  0.73770916  0.75198994     0.25500
H584        H  0.69764075  0.72263602  0.83946102     0.31400
H585        H  0.64238610  0.77140851  0.81019797     0.37300
H586        H  0.78533031  0.79994408  0.70122949     0.31800
H587        H  0.73874746  0.85235234  0.68157903     0.30700
H588        H  0.67695276  0.85023666  0.69914068     0.32300
H589        H  0.63224316  0.84209358  0.77059850     0.31300
H590        H  0.75929168  0.72698844  0.70753334     0.35300
H591        H  0.70976532  0.73445258  0.68335004     0.28000
H592        H  0.75878155  0.84872703  0.83103935     0.32300
H593        H  0.68301057  0.84182841  0.81637738     0.35100
H594        H  0.76277448  0.84232736  0.69676163     0.27700
H595        H  0.71052889  0.71280722  0.70367396     0.40600
H596        H  0.74269854  0.70490994  0.81958737     0.30700
H597        H  0.79840843  0.74122106  0.77827289     0.38300
H598        H  0.64796175  0.84143749  0.74528290     0.30100
H599        H  0.68403153  0.74912541  0.83817494     0.30200
H600        H  0.72958750  0.84235682  0.83491293     0.30500
C601        C  0.49173854  0.70704038  0.71631979     0.79700
N602        N  0.47194423  0.71380034  0.73176914    -0.78600
C603        C  0.44820404  0.70337234  0.72816934     0.82100
N604        N  0.44445409  0.68647899  0.70891782    -0.78600
C605        C  0.46401480  0.68038722  0.69313714     0.82200
N606        N  0.48738348  0.69069540  0.69700674    -0.80300
C607        C  0.27644195  0.50216626  0.69487975     0.79700
N608        N  0.27189420  0.52467141  0.70674040    -0.78600
C609        C  0.28342952  0.54618489  0.69809808     0.82100
N610        N  0.29950630  0.54490772  0.67787908    -0.78600
C611        C  0.30398060  0.52280578  0.66586084     0.82200
N612        N  0.29237056  0.50152473  0.67438366    -0.80300
C613        C  0.49939401  0.35451193  0.71490567     0.79700
N614        N  0.47701306  0.34980948  0.72759076    -0.78600
C615        C  0.45503916  0.36240325  0.72061207     0.82100
N616        N  0.45594857  0.37966452  0.70132317    -0.78600
C617        C  0.47792146  0.38420089  0.68847950     0.82200
N618        N  0.49952516  0.37136521  0.69514778    -0.80300
C619        C  0.66745090  0.51651750  0.71058112     0.79700
N620        N  0.64989460  0.52019325  0.69166044    -0.78600
C621        C  0.63801151  0.54271648  0.68826333     0.82100
N622        N  0.64386868  0.56211323  0.70405642    -0.78600
C623        C  0.66181131  0.55916751  0.72293664     0.82200
N624        N  0.67362576  0.53619914  0.72623555    -0.80300
C625        C  0.50930303  0.36012449  0.27964799     0.79700
N626        N  0.50882316  0.37927047  0.29704301    -0.78600
C627        C  0.48597812  0.38916866  0.30493479     0.82100
N628        N  0.46360921  0.37976174  0.29530320    -0.78600
C629        C  0.46375943  0.36032634  0.27835993     0.82200
N630        N  0.48668142  0.35057858  0.27077941    -0.80300
C631        C  0.68826530  0.51615560  0.31170875     0.79700
N632        N  0.66518094  0.51760925  0.32354930    -0.78600
C633        C  0.65683148  0.53955881  0.33371742     0.82100
N634        N  0.67184407  0.56034773  0.33216980    -0.78600
C635        C  0.69477935  0.55954119  0.32000942     0.82200
N636        N  0.70303251  0.53736620  0.30964392    -0.80300
C637        C  0.50988962  0.75134281  0.32205207     0.79700
N638        N  0.48908185  0.76586901  0.31530319    -0.78600
C639        C  0.46578848  0.76142608  0.32642125     0.82100
N640        N  0.46379481  0.74270116  0.34414381    -0.78600
C641        C  0.48418799  0.72810851  0.35065721     0.82200
N642        N  0.50709065  0.73231734  0.33937074    -0.80300
C643        C  0.26637924  0.50558681  0.31462161     0.79700
N644        N  0.28422461  0.50629034  0.33366770    -0.78600
C645        C  0.29349910  0.52858745  0.34219366     0.82100
N646        N  0.28438889  0.55047362  0.33199561    -0.78600
C647        C  0.26605056  0.55020437  0.31331187     0.82200
N648        N  0.25732449  0.52763930  0.30435271    -0.80300
C649        C  0.67015017  0.74440901  0.48792147     0.79700
N650        N  0.67599935  0.75768835  0.50939681    -0.78600
C651        C  0.66215023  0.75436552  0.53113547     0.82100
N652        N  0.64244442  0.73752797  0.53128700    -0.78600
C653        C  0.63667443  0.72388104  0.51017273     0.82200
N654        N  0.65060867  0.72739038  0.48863168    -0.80300
C655        C  0.70160526  0.36035352  0.48435416     0.79700
N656        N  0.71459614  0.35383788  0.50611331    -0.78600
C657        C  0.70959880  0.36613319  0.52841413     0.82100
N658        N  0.69178691  0.38513257  0.52849326    -0.78600
C659        C  0.67875739  0.39162751  0.50689744     0.82200
N660        N  0.68358050  0.37895443  0.48509312    -0.80300
C661        C  0.26190913  0.71387978  0.48862852     0.79700
N662        N  0.24886495  0.71969093  0.51024996    -0.78600
C663        C  0.25436404  0.70738735  0.53255083     0.82100
N664        N  0.27290733  0.68917465  0.53299637    -0.78600
C665        C  0.28618885  0.68347731  0.51164103     0.82200
N666        N  0.28072185  0.69598571  0.48962599    -0.80300
C667        C  0.27705798  0.34389597  0.48635304     0.79700
N668        N  0.26425747  0.33921376  0.50855452    -0.78600
C669        C  0.26864263  0.35413382  0.52935999     0.82100
N670        N  0.28546843  0.37365733  0.52748634    -0.78600
C671        C  0.29832279  0.37826827  0.50565293     0.82200
N672        N  0.29429969  0.36315450  0.48527981    -0.80300
O673        O  0.90946206  0.99797822  0.99979588    -0.87100
O674        O  0.05581716  0.99710129  0.99579732    -0.87200
O675        O  0.98159376  0.96971058  0.95422608    -0.88900
O676        O  0.98340564  0.96326166  0.03758054    -0.87600
O677        O  0.98652995  0.99149466  0.07066216    -0.87200
O678        O  0.97821843  0.00306077  0.92609303    -0.88600
O679        O  0.02465633  0.96647878  0.99496514    -0.87100
O680        O  0.94065862  0.96780057  0.99361587    -0.86700
Zr681      Zr  0.98280669  0.98729208  0.99765751     2.84300
O682        O  0.00972029  0.01036980  0.02501880    -1.08600
O683        O  0.95574937  0.01501738  0.97530869    -1.09400
C684        C  0.91702209  0.97514549  0.99519642     1.06100
C685        C  0.04831075  0.97389164  0.99423183     1.06000
C686        C  0.97919681  0.97915956  0.93144509     1.09000
C687        C  0.98532588  0.96882579  0.06153230     1.06800
H688        H  0.01801618  0.00520856  0.96145096     0.32300
O689        O  0.00781470  0.01481637  0.97329947    -1.29600
H690        H  0.94746789  0.99939503  0.03678169     0.32000
O691        O  0.95792513  0.01064186  0.02666092    -1.31300
O692        O  0.05697083  0.07848745  0.00351287    -0.87000
O693        O  0.91054391  0.07977633  0.00663676    -0.88500
O694        O  0.02137446  0.04516218  0.92872969    -0.87100
O695        O  0.02729099  0.03322118  0.07363092    -0.87200
O696        O  0.94471179  0.03559742  0.07619710    -0.86900
O697        O  0.93757130  0.04125868  0.93099996    -0.86700
O698        O  0.98342063  0.11354041  0.96480959    -0.87100
O699        O  0.98670984  0.10730194  0.04757902    -0.86500
O700        O  0.97820458  0.08478671  0.93247487    -0.87600
O701        O  0.98599374  0.07442946  0.07650906    -0.86700
O702        O  0.05350531  0.04185239  0.95894181    -0.87100
O703        O  0.90803050  0.04132941  0.96335703    -0.86900
O704        O  0.91222537  0.03641830  0.04627176    -0.86500
O705        O  0.05737630  0.03275891  0.04179738    -0.86900
O706        O  0.02650603  0.10979077  0.00673157    -0.87200
O707        O  0.94197288  0.11017597  0.00886425    -0.88600
Zr708      Zr  0.03475072  0.03788974  0.00076873     2.83100
Zr709      Zr  0.93130001  0.03863832  0.00383642     2.83500
Zr710      Zr  0.98042338  0.04226865  0.95052946     2.84100
Zr711      Zr  0.98509448  0.03448861  0.05318509     2.83400
Zr712      Zr  0.98394386  0.08958120  0.00507379     2.84200
O713        O  0.95869211  0.06230530  0.02996387    -1.09100
O714        O  0.00829049  0.06540249  0.97697168    -1.08600
C715        C  0.05010520  0.10190161  0.00584052     1.06000
C716        C  0.91823604  0.10291601  0.00834984     1.08600
C717        C  0.04518207  0.04424654  0.93581317     1.06200
C718        C  0.05066321  0.03226558  0.06554082     1.06600
C719        C  0.92079550  0.03612739  0.06949765     1.06100
C720        C  0.91432041  0.04125810  0.93955410     1.05700
C721        C  0.98049482  0.10753782  0.94104414     1.06100
C722        C  0.98702632  0.09816425  0.07045808     1.05600
H723        H  0.94484645  0.07751856  0.96932679     0.32300
O724        O  0.95601468  0.06625046  0.97884554    -1.30200
H725        H  0.02162057  0.07135233  0.03983915     0.32300
O726        O  0.01031572  0.06190705  0.02877421    -1.31600
O727        O  0.47589570  0.60693119  0.54396070    -0.87100
O728        O  0.48725487  0.46327553  0.53921998    -0.87200
O729        O  0.44064326  0.53481391  0.57222847    -0.88900
O730        O  0.52352869  0.53703019  0.57262387    -0.87600
O731        O  0.55469421  0.53810595  0.54186818    -0.87200
O732        O  0.40910145  0.53294575  0.54143160    -0.88600
O733        O  0.48381662  0.49340036  0.57050869    -0.87100
O734        O  0.47706251  0.57489926  0.57371242    -0.86700
Zr735      Zr  0.48195018  0.53512658  0.55102999     2.84300
O736        O  0.50896471  0.51153765  0.52468653    -1.08600
O737        O  0.45440550  0.56028126  0.52637154    -1.09400
C738        C  0.47534973  0.59842891  0.56713888     1.06100
C739        C  0.48596587  0.47030994  0.56288174     1.06000
C740        C  0.41694762  0.53412652  0.56485106     1.09000
C741        C  0.54717731  0.53744429  0.56531423     1.06800
H742        H  0.44756148  0.49740433  0.53482282     0.32300
O743        O  0.45765144  0.50874587  0.52444196    -1.29600
H744        H  0.51651009  0.57412033  0.53808188     0.32000
O745        O  0.50641862  0.56344965  0.52697831    -1.31300
O746        O  0.48689869  0.46701845  0.45417056    -0.87000
O747        O  0.47922531  0.61033272  0.46073887    -0.88500
O748        O  0.41136134  0.49242201  0.49907883    -0.87100
O749        O  0.55754856  0.50050805  0.49927425    -0.87200
O750        O  0.55179688  0.58193806  0.50037064    -0.86900
O751        O  0.40615269  0.57402015  0.50212563    -0.86700
O752        O  0.43874636  0.53908267  0.42767209    -0.87100
O753        O  0.52259428  0.54374577  0.42765030    -0.86500
O754        O  0.40807986  0.53479642  0.45864717    -0.87600
O755        O  0.55333202  0.54588703  0.45927965    -0.86700
O756        O  0.44363636  0.46282183  0.49615787    -0.87100
O757        O  0.43540940  0.60644994  0.50135623    -0.86900
O758        O  0.51920248  0.61125091  0.50248497    -0.86500
O759        O  0.52869555  0.46775568  0.49687802    -0.86900
O760        O  0.48309193  0.49914199  0.42465836    -0.87200
O761        O  0.48177693  0.58076006  0.42888605    -0.88600
Zr762      Zr  0.48489237  0.48529601  0.49757629     2.83100
Zr763      Zr  0.47856820  0.58815131  0.50164525     2.83500
Zr764      Zr  0.43005659  0.53428798  0.49985855     2.84100
Zr765      Zr  0.53309628  0.53978019  0.50037395     2.83400
Zr766      Zr  0.48105862  0.53881353  0.44831192     2.84200
O767        O  0.50537741  0.56448516  0.47539614    -1.09100
O768        O  0.45691751  0.51072994  0.47305764    -1.08600
C769        C  0.48571354  0.47555700  0.43086116     1.06000
C770        C  0.48109936  0.60374198  0.43710541     1.08600
C771        C  0.41966807  0.46948172  0.49736789     1.06200
C772        C  0.55181860  0.47680696  0.49784678     1.06600
C773        C  0.54317139  0.60486161  0.50119996     1.06100
C774        C  0.41222232  0.59771520  0.50194239     1.05700
C775        C  0.41519308  0.53718143  0.43518567     1.06100
C776        C  0.54590802  0.54664156  0.43574241     1.05600
H777        H  0.44259441  0.57280482  0.46441380     0.32300
O778        O  0.45390245  0.56236627  0.47471378    -1.30200
H779        H  0.52058125  0.50454856  0.46196387     0.32300
O780        O  0.50911664  0.51368739  0.47301992    -1.31600
C781        C  0.31773318  0.39849651  0.50481109    -0.05800
C782        C  0.31340476  0.42139969  0.51754208    -0.05700
C783        C  0.33231090  0.44010211  0.51801425    -0.23900
C784        C  0.35612878  0.43585380  0.50638957     0.18300
C785        C  0.36074346  0.41277240  0.49370717     0.15500
C786        C  0.34130782  0.39443492  0.49256263    -0.18900
C787        C  0.38490457  0.40822398  0.48288043    -0.20800
C788        C  0.40434648  0.42637650  0.48458778    -0.13300
C789        C  0.39977616  0.44956235  0.49670965     0.03400
C790        C  0.37552989  0.45415143  0.50756001    -0.25500
H791        H  0.29534426  0.42480883  0.52711604     0.08400
H792        H  0.32849852  0.45766361  0.52789179     0.12000
H793        H  0.34486517  0.37661938  0.48303904     0.12000
H794        H  0.38880844  0.39057400  0.47321567     0.11700
H795        H  0.42278609  0.42249911  0.47595833     0.12300
H796        H  0.37183557  0.47187378  0.51722080     0.14200
C797        C  0.30722700  0.66471809  0.51254599    -0.05800
C798        C  0.30466163  0.64216487  0.52656581    -0.05700
C799        C  0.32452736  0.62423709  0.52700546    -0.23900
C800        C  0.34752921  0.62892710  0.51397213     0.18300
C801        C  0.35048652  0.65195542  0.50044263     0.15500
C802        C  0.33018283  0.66947779  0.49947010    -0.18900
C803        C  0.37374559  0.65714089  0.48818017    -0.20800
C804        C  0.39387865  0.63962536  0.48912375    -0.13300
C805        C  0.39097994  0.61638416  0.50191137     0.03400
C806        C  0.36766710  0.61110779  0.51430430    -0.25500
H807        H  0.28708904  0.63823494  0.53679985     0.08400
H808        H  0.32195991  0.60679199  0.53763230     0.12000
H809        H  0.33238920  0.68704582  0.48892664     0.12000
H810        H  0.37638294  0.67476097  0.47786853     0.11700
H811        H  0.41160847  0.64404657  0.47936536     0.12300
H812        H  0.36536119  0.59334387  0.52447454     0.14200
C813        C  0.65797570  0.41079919  0.50736371    -0.05800
C814        C  0.65991887  0.43235975  0.52278777    -0.05700
C815        C  0.63989304  0.45014528  0.52336411    -0.23900
C816        C  0.61728657  0.44624792  0.50909017     0.18300
C817        C  0.61511614  0.42444928  0.49373255     0.15500
C818        C  0.63563015  0.40718883  0.49258098    -0.18900
C819        C  0.59224840  0.41997143  0.48017117    -0.20800
C820        C  0.57156388  0.43677982  0.48196477    -0.13300
C821        C  0.57356335  0.45870715  0.49682827     0.03400
C822        C  0.59664403  0.46347631  0.51019972    -0.25500
H823        H  0.67701473  0.43552003  0.53424496     0.08400
H824        H  0.64189432  0.46669990  0.53531037     0.12000
H825        H  0.63385230  0.39045549  0.48082691     0.12000
H826        H  0.59025181  0.40330689  0.46838214     0.11700
H827        H  0.55409802  0.43286938  0.47133114     0.12300
H828        H  0.59831023  0.48028268  0.52186132     0.14200
C829        C  0.61624610  0.70449767  0.51095430    -0.05800
C830        C  0.59514622  0.70705124  0.52736822    -0.05700
C831        C  0.57607536  0.68843914  0.52825209    -0.23900
C832        C  0.57814276  0.66666604  0.51320586     0.18300
C833        C  0.59961720  0.66375154  0.49706240     0.15500
C834        C  0.61822022  0.68283107  0.49571109    -0.18900
C835        C  0.60241564  0.64157901  0.48285591    -0.20800
C836        C  0.58419600  0.62238568  0.48470860    -0.13300
C837        C  0.56241375  0.62528986  0.50008774     0.03400
C838        C  0.55936161  0.64760315  0.51422855    -0.25500
H839        H  0.59327719  0.72358648  0.53933333     0.08400
H840        H  0.55987932  0.69094378  0.54088713     0.12000
H841        H  0.63464191  0.68047490  0.48331000     0.12000
H842        H  0.61887447  0.63892275  0.47058488     0.11700
H843        H  0.58701170  0.60527747  0.47390791     0.12300
H844        H  0.54276793  0.64982068  0.52642728     0.14200
C845        C  0.31315370  0.52886173  0.36253382    -0.05800
C846        C  0.30928804  0.51510750  0.38515778    -0.05700
C847        C  0.32812636  0.51472416  0.40432749    -0.23900
C848        C  0.35148023  0.52742496  0.40076768     0.18300
C849        C  0.35569734  0.54091174  0.37778033     0.15500
C850        C  0.33627008  0.54199043  0.35902724    -0.18900
C851        C  0.37943686  0.55270073  0.37376442    -0.20800
C852        C  0.39885312  0.55112384  0.39228999    -0.13300
C853        C  0.39472531  0.53819417  0.41541309     0.03400
C854        C  0.37084017  0.52651298  0.41959214    -0.25500
H855        H  0.29155519  0.50482072  0.38804769     0.08400
H856        H  0.32460936  0.50415793  0.42173286     0.12000
H857        H  0.33941264  0.55230490  0.34137802     0.12000
H858        H  0.38306496  0.56298041  0.35621158     0.11700
H859        H  0.41701409  0.56040405  0.38868919     0.12300
H860        H  0.36751835  0.51626269  0.43724376     0.14200
C861        C  0.48102042  0.70722022  0.36908822    -0.05800
C862        C  0.46433155  0.71002283  0.38982444    -0.05700
C863        C  0.46104075  0.69031408  0.40733720    -0.23900
C864        C  0.47394033  0.66726487  0.40404116     0.18300
C865        C  0.49024145  0.66401544  0.38280289     0.15500
C866        C  0.49398551  0.68415749  0.36566704    -0.18900
C867        C  0.50246063  0.64066553  0.37907219    -0.20800
C868        C  0.49884844  0.62083702  0.39641080    -0.13300
C869        C  0.48332021  0.62416959  0.41797583     0.03400
C870        C  0.47084503  0.64744065  0.42164801    -0.25500
H871        H  0.45409499  0.72764741  0.39267510     0.08400
H872        H  0.44834265  0.69306555  0.42339317     0.12000
H873        H  0.50654696  0.68175511  0.34942663     0.12000
H874        H  0.51488602  0.63777543  0.36283080     0.11700
H875        H  0.50877498  0.60307577  0.39334141     0.12300
H876        H  0.45864910  0.65005177  0.43813029     0.14200
C877        C  0.63255637  0.54026299  0.34796683    -0.05800
C878        C  0.61271862  0.52314959  0.34234074    -0.05700
C879        C  0.59049061  0.52257577  0.35711751    -0.23900
C880        C  0.58812843  0.53861035  0.37817644     0.18300
C881        C  0.60796973  0.55602290  0.38380712     0.15500
C882        C  0.62976145  0.55709703  0.36836015    -0.18900
C883        C  0.60623645  0.57129776  0.40545668    -0.20800
C884        C  0.58557953  0.56855335  0.42198371    -0.13300
C885        C  0.56600925  0.55108800  0.41676869     0.03400
C886        C  0.56689522  0.53670820  0.39440284    -0.25500
H887        H  0.61450241  0.51007611  0.32660602     0.08400
H888        H  0.57554004  0.50906569  0.35256872     0.12000
H889        H  0.64512446  0.57014337  0.37301986     0.12000
H890        H  0.62126428  0.58470917  0.41007487     0.11700
H891        H  0.58499956  0.57985012  0.43907109     0.12300
H892        H  0.55190890  0.52301775  0.39049674     0.14200
C893        C  0.48506100  0.40889306  0.32507536    -0.05800
C894        C  0.46889334  0.43008980  0.32216089    -0.05700
C895        C  0.46642475  0.44783301  0.34183152    -0.23900
C896        C  0.47935633  0.44425728  0.36523951     0.18300
C897        C  0.49530453  0.42275902  0.36854070     0.15500
C898        C  0.49855485  0.40557684  0.34825468    -0.18900
C899        C  0.50722407  0.41847677  0.39231202    -0.20800
C900        C  0.50345922  0.43524021  0.41260381    -0.13300
C901        C  0.48822307  0.45707486  0.40949160     0.03400
C902        C  0.47631032  0.46151279  0.38553338    -0.25500
H903        H  0.45813367  0.43290523  0.30458406     0.08400
H904        H  0.45394414  0.46406205  0.33893009     0.12000
H905        H  0.51063414  0.38900527  0.35089676     0.12000
H906        H  0.51935475  0.40201138  0.39529505     0.11700
H907        H  0.51302614  0.43141914  0.43065397     0.12300
H908        H  0.46432847  0.47814495  0.38283037     0.14200
C909        C  0.56715293  0.53688872  0.58543303    -0.05800
C910        C  0.58957127  0.52242976  0.58221269    -0.05700
C911        C  0.60790658  0.52072242  0.60177787    -0.23900
C912        C  0.60437518  0.53394420  0.62463461     0.18300
C913        C  0.58229389  0.54924491  0.62771152     0.15500
C914        C  0.56361869  0.55029004  0.60824479    -0.18900
C915        C  0.57927994  0.56318529  0.65022436    -0.20800
C916        C  0.59780154  0.56170167  0.66968422    -0.13300
C917        C  0.61928749  0.54581944  0.66715612     0.03400
C918        C  0.62250707  0.53206576  0.64449359    -0.25500
H919        H  0.59256675  0.51190671  0.56479377     0.08400
H920        H  0.62480873  0.50903739  0.59905360     0.12000
H921        H  0.54646688  0.56170499  0.61069893     0.12000
H922        H  0.56256994  0.57516065  0.65280965     0.11700
H923        H  0.59497745  0.57240866  0.68700829     0.12300
H924        H  0.63923468  0.52000452  0.64226093     0.14200
C925        C  0.47788439  0.40280658  0.66730231    -0.05800
C926        C  0.46291638  0.42484240  0.66928003    -0.05700
C927        C  0.46188588  0.44239052  0.64930496    -0.23900
C928        C  0.47528437  0.43791002  0.62666243     0.18300
C929        C  0.49005042  0.41558619  0.62414339     0.15500
C930        C  0.49167317  0.39834552  0.64472685    -0.18900
C931        C  0.50259498  0.41085133  0.60096832    -0.20800
C932        C  0.50072632  0.42819151  0.58063738    -0.13300
C933        C  0.48671858  0.45077788  0.58333569     0.03400
C934        C  0.47398225  0.45538672  0.60646339    -0.25500
H935        H  0.45213342  0.42859951  0.68646741     0.08400
H936        H  0.45037021  0.45935310  0.65146784     0.12000
H937        H  0.50294672  0.38117316  0.64292478     0.12000
H938        H  0.51384515  0.39375832  0.59857030     0.11700
H939        H  0.51077474  0.42427208  0.56306162     0.12300
H940        H  0.46281501  0.47258430  0.60869175     0.14200
C941        C  0.39738810  0.53540888  0.58493499    -0.05800
C942        C  0.40054194  0.55252697  0.60509386    -0.05700
C943        C  0.38228522  0.55409172  0.62437499    -0.23900
C944        C  0.36090442  0.53804385  0.62414429     0.18300
C945        C  0.35768967  0.52049528  0.60409185     0.15500
C946        C  0.37572609  0.51964591  0.58428766    -0.18900
C947        C  0.33677064  0.50380560  0.60450716    -0.20800
C948        C  0.31937067  0.50431950  0.62473936    -0.13300
C949        C  0.32224808  0.52197604  0.64447390     0.03400
C950        C  0.34295328  0.53895454  0.64390286    -0.25500
H951        H  0.41703798  0.56493532  0.60572265     0.08400
H952        H  0.38507909  0.56758699  0.63963736     0.12000
H953        H  0.37336604  0.50627544  0.56883143     0.12000
H954        H  0.33406852  0.49015016  0.58938339     0.11700
H955        H  0.30348041  0.49112826  0.62481918     0.12300
H956        H  0.34549623  0.55244313  0.65923109     0.14200
C957        C  0.46050973  0.66319120  0.67145446    -0.05800
C958        C  0.44834624  0.63972264  0.67437645    -0.05700
C959        C  0.44836205  0.62227663  0.65433146    -0.23900
C960        C  0.46016989  0.62834522  0.63104007     0.18300
C961        C  0.47138087  0.65244966  0.62773948     0.15500
C962        C  0.47171513  0.66953242  0.64801527    -0.18900
C963        C  0.48254179  0.65895975  0.60436903    -0.20800
C964        C  0.48312112  0.64155179  0.58449397    -0.13300
C965        C  0.47302190  0.61716290  0.58780339     0.03400
C966        C  0.46137061  0.61070150  0.61112715    -0.25500
H967        H  0.43979553  0.63452673  0.69244319     0.08400
H968        H  0.43950058  0.60395593  0.65714969     0.12000
H969        H  0.48101039  0.68773892  0.64570172     0.12000
H970        H  0.49105743  0.67743973  0.60154107     0.11700
H971        H  0.49221105  0.64692367  0.56674318     0.12300
H972        H  0.45338826  0.59198266  0.61380241     0.14200
C973        C  0.67589784  0.79157383  0.64826283    -0.05800
C974        C  0.65011486  0.78503968  0.64378425    -0.05700
C975        C  0.64156441  0.77919181  0.61921048    -0.23900
C976        C  0.65889980  0.77902913  0.59885986     0.18300
C977        C  0.68458199  0.78684764  0.60293745     0.15500
C978        C  0.69280813  0.79360110  0.62760456    -0.18900
C979        C  0.70197142  0.78618435  0.58261788    -0.20800
C980        C  0.69438340  0.77662747  0.55887952    -0.13300
C981        C  0.66924859  0.76765527  0.55501340     0.03400
C982        C  0.65137755  0.76970157  0.57493057    -0.25500
H983        H  0.63685186  0.78339514  0.65955693     0.08400
H984        H  0.62177911  0.77341007  0.61640491     0.12000
H985        H  0.71279350  0.79833255  0.63107553     0.12000
H986        H  0.72170720  0.79213992  0.58535294     0.11700
H987        H  0.70850766  0.77531222  0.54386373     0.12300
H988        H  0.63185532  0.76307608  0.57214812     0.14200
C989        C  0.66945398  0.58167966  0.73805616    -0.05800
C990        C  0.69458386  0.58431736  0.74774045    -0.05700
C991        C  0.70291248  0.60755244  0.75766672    -0.23900
C992        C  0.68625232  0.62854766  0.75802172     0.18300
C993        C  0.66051446  0.62551041  0.74972606     0.15500
C994        C  0.65228418  0.60216174  0.74010055    -0.18900
C995        C  0.64375865  0.64629652  0.74962123    -0.20800
C996        C  0.65282379  0.67028703  0.75583503    -0.13300
C997        C  0.67862478  0.67392414  0.76287533     0.03400
C998        C  0.69512035  0.65281002  0.76498392    -0.25500
H999        H  0.70820052  0.56885401  0.74639312     0.08400
H1000       H  0.72267832  0.60938608  0.76403178     0.12000
H1001       H  0.63276553  0.60033833  0.73294494     0.12000
H1002       H  0.62394700  0.64425305  0.74345267     0.11700
H1003       H  0.63986837  0.68631737  0.75413974     0.12300
H1004       H  0.71513824  0.65555050  0.77013051     0.14200
C1005       C  0.60117216  0.76269202  0.73958749    -0.05800
C1006       C  0.58111280  0.77776913  0.74922008    -0.05700
C1007       C  0.55548847  0.77005984  0.74693416    -0.23900
C1008       C  0.54948284  0.74711743  0.73503123     0.18300
C1009       C  0.56957837  0.73215405  0.72497976     0.15500
C1010       C  0.59510544  0.74003832  0.72719872    -0.18900
C1011       C  0.56395981  0.70930151  0.71302036    -0.20800
C1012       C  0.53865013  0.70135331  0.71072044    -0.13300
C1013       C  0.51831976  0.71598538  0.72041579     0.03400
C1014       C  0.52385365  0.73883410  0.73287719    -0.25500
H1015       H  0.58522615  0.79539037  0.75884745     0.08400
H1016       H  0.54043549  0.78190325  0.75467134     0.12000
H1017       H  0.61029429  0.72812998  0.71977490     0.12000
H1018       H  0.57914848  0.69756453  0.70535617     0.11700
H1019       H  0.53503194  0.68352241  0.70129045     0.12300
H1020       H  0.50834249  0.75029076  0.74034145     0.14200
C1021       C  0.73201397  0.33597798  0.64736777    -0.05800
C1022       C  0.71699845  0.35814050  0.64557815    -0.05700
C1023       C  0.71156198  0.36935469  0.62209777    -0.23900
C1024       C  0.72083793  0.35860741  0.59967651     0.18300
C1025       C  0.73677968  0.33690041  0.60096629     0.15500
C1026       C  0.74260997  0.32578985  0.62496860    -0.18900
C1027       C  0.74558282  0.32622703  0.57812402    -0.20800
C1028       C  0.73767851  0.33623880  0.55441706    -0.13300
C1029       C  0.72104025  0.35729237  0.55308739     0.03400
C1030       C  0.71343815  0.36876914  0.57597759    -0.25500
H1031       H  0.70887301  0.36662302  0.66250046     0.08400
H1032       H  0.69943469  0.38606249  0.62145045     0.12000
H1033       H  0.75406936  0.30865427  0.62606903     0.12000
H1034       H  0.75789115  0.30965893  0.57856634     0.11700
H1035       H  0.74399845  0.32702117  0.53715443     0.12300
H1036       H  0.70074705  0.38507366  0.57549761     0.14200
C1037       C  0.52369918  0.34124868  0.72131786    -0.05800
C1038       C  0.53866323  0.33216935  0.70114603    -0.05700
C1039       C  0.56382050  0.32400908  0.70533896    -0.23900
C1040       C  0.57471268  0.32507782  0.72980759     0.18300
C1041       C  0.55963799  0.33299066  0.75065640     0.15500
C1042       C  0.53394570  0.34085661  0.74632249    -0.18900
C1043       C  0.57096680  0.33374656  0.77513477    -0.20800
C1044       C  0.59704263  0.32737181  0.77868602    -0.13300
C1045       C  0.61225970  0.32049007  0.75776579     0.03400
C1046       C  0.60071951  0.31904156  0.73347658    -0.25500
H1047       H  0.53111511  0.33228473  0.68181190     0.08400
H1048       H  0.57508237  0.31775357  0.68922707     0.12000
H1049       H  0.52258933  0.34807575  0.76195466     0.12000
H1050       H  0.55979444  0.33964289  0.79143392     0.11700
H1051       H  0.60546604  0.32845504  0.79761030     0.12300
H1052       H  0.61210272  0.31327894  0.71724019     0.14200
C1053       C  0.70885269  0.40471637  0.74602774    -0.05800
C1054       C  0.71314673  0.42184691  0.76605916    -0.05700
C1055       C  0.70717821  0.44759091  0.76302423    -0.23900
C1056       C  0.69704000  0.45670921  0.73980990     0.18300
C1057       C  0.69341623  0.43964404  0.71939793     0.15500
C1058       C  0.69920432  0.41390747  0.72264648    -0.18900
C1059       C  0.68361245  0.44844085  0.69609139    -0.20800
C1060       C  0.67642742  0.47367516  0.69323956    -0.13300
C1061       C  0.67879459  0.49082489  0.71361223     0.03400
C1062       C  0.68981723  0.48233489  0.73677459    -0.25500
H1063       H  0.72061956  0.41524098  0.78426624     0.08400
H1064       H  0.71020558  0.46028847  0.77891580     0.12000
H1065       H  0.69612542  0.40098979  0.70691078     0.12000
H1066       H  0.68098460  0.43567668  0.68017099     0.11700
H1067       H  0.66839807  0.47961660  0.67503073     0.12300
H1068       H  0.69177505  0.49527670  0.75263496     0.14200
C1069       C  0.22367336  0.72506587  0.65090188    -0.05800
C1070       C  0.23392841  0.70067271  0.64780702    -0.05700
C1071       C  0.23984377  0.69167278  0.62364515    -0.23900
C1072       C  0.23595827  0.70706994  0.60215051     0.18300
C1073       C  0.22460597  0.73125016  0.60480527     0.15500
C1074       C  0.21817637  0.74002641  0.62925658    -0.18900
C1075       C  0.22101824  0.74656110  0.58307949    -0.20800
C1076       C  0.22962557  0.73841285  0.55920943    -0.13300
C1077       C  0.24194310  0.71483113  0.55672012     0.03400
C1078       C  0.24432248  0.69900819  0.57822943    -0.25500
H1079       H  0.23815693  0.68882800  0.66427015     0.08400
H1080       H  0.24838075  0.67304086  0.62188270     0.12000
H1081       H  0.21048468  0.75895631  0.63157205     0.12000
H1082       H  0.21229464  0.76512051  0.58467239     0.11700
H1083       H  0.22752942  0.75097820  0.54292504     0.12300
H1084       H  0.25352162  0.68066050  0.57657791     0.14200
C1085       C  0.33423257  0.72101668  0.77315550    -0.05800
C1086       C  0.33704320  0.69565584  0.76579224    -0.05700
C1087       C  0.36094441  0.68626615  0.75855043    -0.23900
C1088       C  0.38233465  0.70226736  0.75804701     0.18300
C1089       C  0.38023215  0.72725555  0.76733563     0.15500
C1090       C  0.35614512  0.73639537  0.77530739    -0.18900
C1091       C  0.40180299  0.74315771  0.76659245    -0.20800
C1092       C  0.42459836  0.73496357  0.75511089    -0.13300
C1093       C  0.42612052  0.71077003  0.74420483     0.03400
C1094       C  0.40522596  0.69419542  0.74673027    -0.25500
H1095       H  0.32035004  0.68355141  0.76404089     0.08400
H1096       H  0.36231836  0.66698806  0.75174777     0.12000
H1097       H  0.35401216  0.75606244  0.78069067     0.12000
H1098       H  0.40066751  0.76230524  0.77377990     0.11700
H1099       H  0.44052344  0.74801658  0.75355499     0.12300
H1100       H  0.40633896  0.67533277  0.73877206     0.14200
C1101       C  0.27919515  0.57114677  0.71008138    -0.05800
C1102       C  0.29770040  0.59015249  0.70638685    -0.05700
C1103       C  0.29348687  0.61466207  0.71486676    -0.23900
C1104       C  0.27056410  0.62083284  0.72711375     0.18300
C1105       C  0.25197130  0.60193996  0.73173009     0.15500
C1106       C  0.25650199  0.57700110  0.72336239    -0.18900
C1107       C  0.22898220  0.60862439  0.74396491    -0.20800
C1108       C  0.22423773  0.63385929  0.75080419    -0.13300
C1109       C  0.24241068  0.65277302  0.74549282     0.03400
C1110       C  0.26577881  0.64585523  0.73414310    -0.25500
H1111       H  0.31547284  0.58617588  0.69651637     0.08400
H1112       H  0.30796809  0.62893873  0.71133423     0.12000
H1113       H  0.24205177  0.56255425  0.72622660     0.12000
H1114       H  0.21447073  0.59446465  0.74775626     0.11700
H1115       H  0.20609156  0.63868277  0.75955318     0.12300
H1116       H  0.28019667  0.66011350  0.73021994     0.14200
C1117       C  0.25768596  0.34833568  0.55485133    -0.05800
C1118       C  0.26180591  0.36561390  0.57484771    -0.05700
C1119       C  0.25568495  0.35942113  0.59987824    -0.23900
C1120       C  0.24503069  0.33588620  0.60556643     0.18300
C1121       C  0.23924023  0.31876366  0.58569922     0.15500
C1122       C  0.24561989  0.32509498  0.56033083    -0.18900
C1123       C  0.22802768  0.29535342  0.59181830    -0.20800
C1124       C  0.22362617  0.28871878  0.61738264    -0.13300
C1125       C  0.23071372  0.30527109  0.63708852     0.03400
C1126       C  0.24087670  0.32899604  0.63098035    -0.25500
H1127       H  0.27065995  0.38380722  0.57135830     0.08400
H1128       H  0.25991131  0.37284222  0.61489634     0.12000
H1129       H  0.24221538  0.31160279  0.54519194     0.12000
H1130       H  0.22326285  0.28197824  0.57693684     0.11700
H1131       H  0.21579995  0.27025484  0.62181633     0.12300
H1132       H  0.24611254  0.34191436  0.64614674     0.14200
C1133       C  0.24858817  0.38445311  0.71875934    -0.05800
C1134       C  0.25700983  0.38742213  0.69346946    -0.05700
C1135       C  0.26234268  0.41124562  0.68353785    -0.23900
C1136       C  0.25967957  0.43269152  0.69876958     0.18300
C1137       C  0.25057351  0.43029108  0.72402472     0.15500
C1138       C  0.24470887  0.40608795  0.73384194    -0.18900
C1139       C  0.24833041  0.45208322  0.73910150    -0.20800
C1140       C  0.25584617  0.47576786  0.72949017    -0.13300
C1141       C  0.26561625  0.47803973  0.70461236     0.03400
C1142       C  0.26683621  0.45638318  0.68924664    -0.25500
H1143       H  0.25981731  0.37115000  0.68132671     0.08400
H1144       H  0.26917124  0.41281362  0.66409733     0.12000
H1145       H  0.23825513  0.40401022  0.75336272     0.12000
H1146       H  0.24137326  0.45072582  0.75849876     0.11700
H1147       H  0.25472425  0.49213280  0.74177055     0.12300
H1148       H  0.27408122  0.45776632  0.66993794     0.14200
C1149       C  0.34751523  0.31090672  0.75724811    -0.05800
C1150       C  0.36796109  0.29547487  0.76573762    -0.05700
C1151       C  0.39355200  0.30310772  0.76225114    -0.23900
C1152       C  0.39906685  0.32642300  0.75047912     0.18300
C1153       C  0.37846815  0.34254654  0.74329749     0.15500
C1154       C  0.35299587  0.33468527  0.74661725    -0.18900
C1155       C  0.38355813  0.36596330  0.73196652    -0.20800
C1156       C  0.40869640  0.37282263  0.72632255    -0.13300
C1157       C  0.42945968  0.35640092  0.73168830     0.03400
C1158       C  0.42457735  0.33349224  0.74471245    -0.25500
H1159       H  0.36416526  0.27704099  0.77399420     0.08400
H1160       H  0.40898265  0.29048735  0.76809268     0.12000
H1161       H  0.33734194  0.34684971  0.74028697     0.12000
H1162       H  0.36799985  0.37868430  0.72668551     0.11700
H1163       H  0.41172170  0.39077421  0.71675726     0.12300
H1164       H  0.44029952  0.32064281  0.74906649     0.14200
C1165       C  0.07107977  0.12094149  0.00798487    -0.05800
C1166       C  0.06767393  0.14330508  0.02202835    -0.05700
C1167       C  0.08799339  0.16045286  0.02524310    -0.23900
C1168       C  0.11200423  0.15586835  0.01401946     0.18300
C1169       C  0.11533335  0.13384714  0.99917560     0.15500
C1170       C  0.09508339  0.11642291  0.99660227    -0.18900
C1171       C  0.13883084  0.12967158  0.98694350    -0.20800
C1172       C  0.15883054  0.14712033  0.98928284    -0.13300
C1173       C  0.15612206  0.16873145  0.00451165     0.03400
C1174       C  0.13263799  0.17297260  0.01703915    -0.25500
H1175       H  0.04945132  0.14723235  0.03107627     0.08400
H1176       H  0.08491240  0.17730703  0.03650147     0.12000
H1177       H  0.09792583  0.09943573  0.98545503     0.12000
H1178       H  0.14165570  0.11303027  0.97529948     0.11700
H1179       H  0.17664377  0.14362727  0.97929522     0.12300
H1180       H  0.13020070  0.18988663  0.02838052     0.14200
C1181       C  0.23646034  0.23062634  0.86387527    -0.05800
C1182       C  0.22354048  0.20751239  0.86714168    -0.05700
C1183       C  0.21695659  0.19881356  0.89125949    -0.23900
C1184       C  0.22316704  0.21299178  0.91282183     0.18300
C1185       C  0.23734894  0.23564524  0.91025010     0.15500
C1186       C  0.24413231  0.24436725  0.88561675    -0.18900
C1187       C  0.24357560  0.24940262  0.93233713    -0.20800
C1188       C  0.23501748  0.24123271  0.95641071    -0.13300
C1189       C  0.21994136  0.21927513  0.95876928     0.03400
C1190       C  0.21467049  0.20503950  0.93682208    -0.25500
H1191       H  0.21773482  0.19640085  0.85077319     0.08400
H1192       H  0.20634229  0.18127995  0.89296747     0.12000
H1193       H  0.25402676  0.26224341  0.88332769     0.12000
H1194       H  0.25455407  0.26673203  0.93094455     0.11700
H1195       H  0.23950865  0.25250987  0.97303575     0.12300
H1196       H  0.20346723  0.18783208  0.93827746     0.14200
C1197       C  0.68443977  0.74863893  0.46370700    -0.05800
C1198       C  0.70384229  0.76707076  0.46195129    -0.05700
C1199       C  0.71603141  0.77199887  0.43864436    -0.23900
C1200       C  0.70913341  0.75855490  0.41659349     0.18300
C1201       C  0.69026022  0.73946740  0.41838824     0.15500
C1202       C  0.67810613  0.73466198  0.44175801    -0.18900
C1203       C  0.68345488  0.72569063  0.39666351    -0.20800
C1204       C  0.69456513  0.73123616  0.37315940    -0.13300
C1205       C  0.71273807  0.75080315  0.37064168     0.03400
C1206       C  0.72031145  0.76413538  0.39271758    -0.25500
H1207       H  0.70930495  0.77805851  0.47849249     0.08400
H1208       H  0.73057206  0.78660200  0.43779391     0.12000
H1209       H  0.66338370  0.72022178  0.44266360     0.12000
H1210       H  0.66917916  0.71083888  0.39773902     0.11700
H1211       H  0.68841213  0.72038508  0.35675617     0.12300
H1212       H  0.73431669  0.77920001  0.39124684     0.14200
C1213       C  0.62610286  0.78224263  0.28719740    -0.05800
C1214       C  0.61216744  0.80444424  0.29256117    -0.05700
C1215       C  0.58608103  0.80330379  0.29914101    -0.23900
C1216       C  0.57332588  0.77994418  0.30033105     0.18300
C1217       C  0.58707629  0.75762667  0.29440959     0.15500
C1218       C  0.61318223  0.75891046  0.28792663    -0.18900
C1219       C  0.57468703  0.73419788  0.29559950    -0.20800
C1220       C  0.54922962  0.73268303  0.30353054    -0.13300
C1221       C  0.53539651  0.75453141  0.31010931     0.03400
C1222       C  0.54735883  0.77831290  0.30795066    -0.25500
H1223       H  0.62155986  0.82269494  0.29214763     0.08400
H1224       H  0.57597897  0.82066360  0.30358510     0.12000
H1225       H  0.62348720  0.74160768  0.28363786     0.12000
H1226       H  0.58489474  0.71692430  0.29103066     0.11700
H1227       H  0.54040263  0.71420020  0.30505925     0.12300
H1228       H  0.53694256  0.79523746  0.31331269     0.14200
C1229       C  0.71002041  0.58300551  0.31842270    -0.05800
C1230       C  0.70840556  0.60056739  0.33839890    -0.05700
C1231       C  0.71839179  0.62484025  0.33565881    -0.23900
C1232       C  0.72977290  0.63215026  0.31267770     0.18300
C1233       C  0.73305283  0.61420581  0.29300179     0.15500
C1234       C  0.72343454  0.58951434  0.29614919    -0.18900
C1235       C  0.74438199  0.62181044  0.26996312    -0.20800
C1236       C  0.75073338  0.64724443  0.26586993    -0.13300
C1237       C  0.74575808  0.66533975  0.28471885     0.03400
C1238       C  0.73622302  0.65752872  0.30842783    -0.25500
H1239       H  0.69845830  0.59579975  0.35586662     0.08400
H1240       H  0.71599019  0.63828031  0.35101012     0.12000
H1241       H  0.72469496  0.57607990  0.28064854     0.12000
H1242       H  0.74720760  0.60835872  0.25470548     0.11700
H1243       H  0.75799944  0.65304239  0.24742405     0.12300
H1244       H  0.73242819  0.67150915  0.32301776     0.14200
C1245       C  0.70543149  0.34690949  0.45997665    -0.05800
C1246       C  0.68408509  0.34393984  0.44370397    -0.05700
C1247       C  0.68700873  0.33475111  0.41909418    -0.23900
C1248       C  0.71141577  0.32844865  0.41008915     0.18300
C1249       C  0.73307405  0.33023363  0.42641939     0.15500
C1250       C  0.72993059  0.33928189  0.45154969    -0.18900
C1251       C  0.75740739  0.32364313  0.41692134    -0.20800
C1252       C  0.76020704  0.31601583  0.39140359    -0.13300
C1253       C  0.73873102  0.31496392  0.37492574     0.03400
C1254       C  0.71437142  0.32090897  0.38473709    -0.25500
H1255       H  0.66501750  0.34937154  0.44985326     0.08400
H1256       H  0.67020559  0.33322741  0.40685024     0.12000
H1257       H  0.74651751  0.34156735  0.46395555     0.12000
H1258       H  0.77429720  0.32476105  0.42908110     0.11700
H1259       H  0.77919978  0.31142435  0.38445562     0.12300
H1260       H  0.69747919  0.31990092  0.37254218     0.14200
C1261       C  0.69748724  0.49105547  0.30306034    -0.05800
C1262       C  0.71953681  0.48839923  0.28795345    -0.05700
C1263       C  0.72808029  0.46432212  0.28065626    -0.23900
C1264       C  0.71479117  0.44253128  0.28847754     0.18300
C1265       C  0.69267216  0.44511703  0.30369442     0.15500
C1266       C  0.68419850  0.46917745  0.31076975    -0.18900
C1267       C  0.67927549  0.42359928  0.31169825    -0.20800
C1268       C  0.68764987  0.39959463  0.30468473    -0.13300
C1269       C  0.70962152  0.39654734  0.28949540     0.03400
C1270       C  0.72313820  0.41822752  0.28141101    -0.25500
H1271       H  0.73016101  0.50489267  0.28178229     0.08400
H1272       H  0.74510429  0.46274190  0.26897897     0.12000
H1273       H  0.66726900  0.47072561  0.32260601     0.12000
H1274       H  0.66224742  0.42532571  0.32336569     0.11700
H1275       H  0.67670525  0.38337925  0.31106388     0.12300
H1276       H  0.74011085  0.41623098  0.26971197     0.14200
C1277       C  0.53413075  0.34922014  0.27067137    -0.05800
C1278       C  0.53513836  0.32428771  0.26136598    -0.05700
C1279       C  0.55844045  0.31349205  0.25362318    -0.23900
C1280       C  0.58132544  0.32741120  0.25485140     0.18300
C1281       C  0.58043924  0.35277563  0.26336785     0.15500
C1282       C  0.55693947  0.36347797  0.27122629    -0.18900
C1283       C  0.60326497  0.36671980  0.26481931    -0.20800
C1284       C  0.62685031  0.35522511  0.25951318    -0.13300
C1285       C  0.62815717  0.32973727  0.25204599     0.03400
C1286       C  0.60519695  0.31609657  0.24890826    -0.25500
H1287       H  0.51791545  0.31285292  0.26058556     0.08400
H1288       H  0.55862193  0.29406546  0.24713794     0.12000
H1289       H  0.55646862  0.38280203  0.27802929     0.12000
H1290       H  0.60302078  0.38619689  0.27116062     0.11700
H1291       H  0.64434117  0.36599809  0.26226217     0.12300
H1292       H  0.60606313  0.29632052  0.24361111     0.14200
C1293       C  0.25766711  0.75621124  0.37163133    -0.05800
C1294       C  0.28108135  0.74362779  0.37659512    -0.05700
C1295       C  0.28659515  0.73371715  0.40063735    -0.23900
C1296       C  0.26885440  0.73617595  0.42034917     0.18300
C1297       C  0.24562526  0.74956477  0.41613711     0.15500
C1298       C  0.24017283  0.75968247  0.39172169    -0.18900
C1299       C  0.22814553  0.75199264  0.43629990    -0.20800
C1300       C  0.23348737  0.74084893  0.46013925    -0.13300
C1301       C  0.25631133  0.72697310  0.46411636     0.03400
C1302       C  0.27396981  0.72503067  0.44409738    -0.25500
H1303       H  0.29508265  0.74093759  0.36164148     0.08400
H1304       H  0.30458230  0.72369861  0.40367130     0.12000
H1305       H  0.22205422  0.76929243  0.38814674     0.12000
H1306       H  0.21024762  0.76222008  0.43355296     0.11700
H1307       H  0.21955009  0.74266893  0.47527242     0.12300
H1308       H  0.29180546  0.71467477  0.44688520     0.14200
C1309       C  0.23207614  0.66754001  0.29534922    -0.05800
C1310       C  0.24099442  0.66370387  0.32043283    -0.05700
C1311       C  0.24781522  0.63967511  0.32906814    -0.23900
C1312       C  0.24615570  0.61897399  0.31266842     0.18300
C1313       C  0.23595144  0.62212251  0.28775247     0.15500
C1314       C  0.22867106  0.64653845  0.27922908    -0.18900
C1315       C  0.23432453  0.60095027  0.27166826    -0.20800
C1316       C  0.24355109  0.57724323  0.27995984    -0.13300
C1317       C  0.25476957  0.57446562  0.30433437     0.03400
C1318       C  0.25543555  0.59537288  0.32068236    -0.25500
H1319       H  0.24367605  0.67961874  0.33311836     0.08400
H1320       H  0.25536852  0.63746216  0.34828970     0.12000
H1321       H  0.22203035  0.64941182  0.25976557     0.12000
H1322       H  0.22643734  0.60283247  0.25255225     0.11700
H1323       H  0.24258220  0.56130034  0.26709910     0.12300
H1324       H  0.26349591  0.59338292  0.33973906     0.14200
C1325       C  0.34608121  0.78569214  0.30141736    -0.05800
C1326       C  0.34881972  0.77578687  0.32621508    -0.05700
C1327       C  0.37308028  0.77222834  0.33706015    -0.23900
C1328       C  0.39515703  0.77790435  0.32304674     0.18300
C1329       C  0.39283956  0.78874272  0.29841743     0.15500
C1330       C  0.36814883  0.79307843  0.28786427    -0.18900
C1331       C  0.41526101  0.79364767  0.28438811    -0.20800
C1332       C  0.43949469  0.78631806  0.29399321    -0.13300
C1333       C  0.44169162  0.77432616  0.31794209     0.03400
C1334       C  0.41942136  0.77138120  0.33277366    -0.25500
H1335       H  0.33206864  0.77015813  0.33701132     0.08400
H1336       H  0.37457884  0.76395839  0.35599347     0.12000
H1337       H  0.36615519  0.80052484  0.26862804     0.12000
H1338       H  0.41395448  0.80202819  0.26550332     0.11700
H1339       H  0.45627253  0.78885680  0.28215684     0.12300
H1340       H  0.42070656  0.76249387  0.35144767     0.14200
C1341       C  0.15393487  0.01761420  0.13577204    -0.05800
C1342       C  0.15468358  0.00051554  0.11538462    -0.05700
C1343       C  0.13444732  0.99963482  0.09761637    -0.23900
C1344       C  0.11291616  0.01547765  0.10028591     0.18300
C1345       C  0.11147315  0.03178961  0.12152777     0.15500
C1346       C  0.13209545  0.03298422  0.13889485    -0.18900
C1347       C  0.08958062  0.04691815  0.12484880    -0.20800
C1348       C  0.06955434  0.04640574  0.10694075    -0.13300
C1349       C  0.07129700  0.03121134  0.08510414     0.03400
C1350       C  0.09297051  0.01557791  0.08197193    -0.25500
H1351       H  0.17132227  0.98847904  0.11269757     0.08400
H1352       H  0.13577598  0.98680010  0.08162871     0.12000
H1353       H  0.13120675  0.04595269  0.15483341     0.12000
H1354       H  0.08805224  0.05933294  0.14116144     0.11700
H1355       H  0.05299329  0.05853213  0.10972953     0.12300
H1356       H  0.09423981  0.00351535  0.06535969     0.14200
C1357       C  0.22472885  0.97981163  0.18594298    -0.05800
C1358       C  0.23769660  0.97871216  0.20959263    -0.05700
C1359       C  0.24693373  0.95549827  0.21928498    -0.23900
C1360       C  0.24322468  0.93297682  0.20555750     0.18300
C1361       C  0.23170524  0.93430704  0.18106056     0.15500
C1362       C  0.22292458  0.95759552  0.17136496    -0.18900
C1363       C  0.22755927  0.91209590  0.16721802    -0.20800
C1364       C  0.23282970  0.88858228  0.17827359    -0.13300
C1365       C  0.24290825  0.88671469  0.20316991     0.03400
C1366       C  0.24921798  0.90906335  0.21637852    -0.25500
H1367       H  0.23953638  0.99552085  0.22117297     0.08400
H1368       H  0.25589047  0.95499995  0.23801565     0.12000
H1369       H  0.21339801  0.95813426  0.15289032     0.12000
H1370       H  0.21893628  0.91282307  0.14833194     0.11700
H1371       H  0.22800106  0.87166254  0.16770313     0.12300
H1372       H  0.25681035  0.90781081  0.23566708     0.14200
C1373       C  0.24071288  0.29661231  0.37762851    -0.05800
C1374       C  0.21897187  0.29894232  0.39329590    -0.05700
C1375       C  0.22159595  0.30627197  0.41893548    -0.23900
C1376       C  0.24601304  0.31137279  0.42935920     0.18300
C1377       C  0.26797203  0.30766772  0.41405228     0.15500
C1378       C  0.26519445  0.30020875  0.38854424    -0.18900
C1379       C  0.29242772  0.31272084  0.42402153    -0.20800
C1380       C  0.29510800  0.32308383  0.44825854    -0.13300
C1381       C  0.27348381  0.32821579  0.46328715     0.03400
C1382       C  0.24891831  0.32135899  0.45419545    -0.25500
H1383       H  0.19988364  0.29607312  0.38546933     0.08400
H1384       H  0.20448757  0.30878956  0.43032279     0.12000
H1385       H  0.28219780  0.29803543  0.37690140     0.12000
H1386       H  0.30945532  0.30975127  0.41261605     0.11700
H1387       H  0.31419504  0.32799978  0.45496388     0.12300
H1388       H  0.23211364  0.32540847  0.46559779     0.14200
C1389       C  0.43914930  0.34907042  0.26915631    -0.05800
C1390       C  0.43861422  0.32438332  0.25919976    -0.05700
C1391       C  0.41534351  0.31313784  0.25189090    -0.23900
C1392       C  0.39205489  0.32636088  0.25425036     0.18300
C1393       C  0.39241899  0.35140567  0.26364259     0.15500
C1394       C  0.41586218  0.36255578  0.27100579    -0.18900
C1395       C  0.36920685  0.36462143  0.26632851    -0.20800
C1396       C  0.34580404  0.35274442  0.26108580    -0.13300
C1397       C  0.34506918  0.32761268  0.25249829     0.03400
C1398       C  0.36835430  0.31469417  0.24839066    -0.25500
H1399       H  0.45617699  0.31347464  0.25759079     0.08400
H1400       H  0.41553257  0.29392601  0.24479246     0.12000
H1401       H  0.41590589  0.38162879  0.27850136     0.12000
H1402       H  0.36907932  0.38383811  0.27342153     0.11700
H1403       H  0.32808606  0.36293844  0.26459223     0.12300
H1404       H  0.36794615  0.29514527  0.24225692     0.14200
C1405       C  0.25727148  0.48076242  0.30552561    -0.05800
C1406       C  0.24775784  0.47752868  0.28058874    -0.05700
C1407       C  0.24192946  0.45328661  0.27156696    -0.23900
C1408       C  0.24548414  0.43201187  0.28740691     0.18300
C1409       C  0.25404917  0.43538579  0.31282721     0.15500
C1410       C  0.25971025  0.45961193  0.32168655    -0.18900
C1411       C  0.25769326  0.41441324  0.32884921    -0.20800
C1412       C  0.25401775  0.39012394  0.31949272    -0.13300
C1413       C  0.24635579  0.38634189  0.29402903     0.03400
C1414       C  0.24141605  0.40740919  0.27818192    -0.25500
H1415       H  0.24569697  0.49359578  0.26781226     0.08400
H1416       H  0.23526956  0.45112271  0.25206034     0.12000
H1417       H  0.26666804  0.46190355  0.34109896     0.12000
H1418       H  0.26404141  0.41675532  0.34844141     0.11700
H1419       H  0.25749018  0.37419212  0.33217285     0.12300
H1420       H  0.23543729  0.40463822  0.25853067     0.14200
C1421       C  0.21807748  0.22115160  0.05337183    -0.05800
C1422       C  0.23189750  0.24395101  0.05515270    -0.05700
C1423       C  0.24171022  0.25222792  0.07871473    -0.23900
C1424       C  0.23821587  0.23770807  0.10096067     0.18300
C1425       C  0.22526723  0.21426636  0.09905949     0.15500
C1426       C  0.21520104  0.20627313  0.07547253    -0.18900
C1427       C  0.22194830  0.19939955  0.12093281    -0.20800
C1428       C  0.22989633  0.20826669  0.14470405    -0.13300
C1429       C  0.24144226  0.23219729  0.14733691     0.03400
C1430       C  0.24643164  0.24654367  0.12516962    -0.25500
H1431       H  0.23462484  0.25570166  0.03839575     0.08400
H1432       H  0.25168062  0.27016866  0.07959030     0.12000
H1433       H  0.20504833  0.18842412  0.07435955     0.12000
H1434       H  0.21236756  0.18125394  0.11981652     0.11700
H1435       H  0.22595697  0.19675814  0.16139814     0.12300
H1436       H  0.25508878  0.26508064  0.12690988     0.14200
C1437       C  0.20835497  0.07323833  0.18653692    -0.05800
C1438       C  0.19981031  0.09348014  0.17100820    -0.05700
C1439       C  0.20350687  0.11848569  0.17831794    -0.23900
C1440       C  0.21573031  0.12395134  0.20145174     0.18300
C1441       C  0.22500941  0.10397679  0.21712497     0.15500
C1442       C  0.22138606  0.07864202  0.20951004    -0.18900
C1443       C  0.23742620  0.10980243  0.24022895    -0.20800
C1444       C  0.24029144  0.13504970  0.24778175    -0.13300
C1445       C  0.23051729  0.15490871  0.23252086     0.03400
C1446       C  0.21847380  0.14913206  0.20923033    -0.25500
H1447       H  0.19002416  0.09001059  0.15305488     0.08400
H1448       H  0.19647302  0.13356500  0.16598836     0.12000
H1449       H  0.22805384  0.06327620  0.22166467     0.12000
H1450       H  0.24476707  0.09485418  0.25252361     0.11700
H1451       H  0.24973425  0.13902426  0.26580484     0.12300
H1452       H  0.21117811  0.16426924  0.19710820     0.14200
C1453       C  0.98926764  0.11645366  0.09132106    -0.05800
C1454       C  0.00710929  0.13625765  0.08965360    -0.05700
C1455       C  0.00983138  0.15345365  0.10962032    -0.23900
C1456       C  0.99433398  0.15138968  0.13130601     0.18300
C1457       C  0.97582955  0.13185989  0.13274776     0.15500
C1458       C  0.97368084  0.11428393  0.11290954    -0.18900
C1459       C  0.95977783  0.13023984  0.15400589    -0.20800
C1460       C  0.96217955  0.14762113  0.17380754    -0.13300
C1461       C  0.98093214  0.16672096  0.17292839     0.03400
C1462       C  0.99697588  0.16851591  0.15154098    -0.25500
H1463       H  0.01929071  0.13811128  0.07306539     0.08800
H1464       H  0.02399955  0.16835877  0.10808651     0.12000
H1465       H  0.95968484  0.09916131  0.11405282     0.12000
H1466       H  0.94538114  0.11552237  0.15533684     0.11700
H1467       H  0.94957206  0.14583770  0.19007267     0.12300
H1468       H  0.01125796  0.18337581  0.15050643     0.14200
C1469       C  0.85596413  0.25052354  0.26721435    -0.05800
C1470       C  0.87500411  0.26870734  0.27209045    -0.05700
C1471       C  0.90109719  0.26283497  0.26875310    -0.23900
C1472       C  0.90853662  0.23854320  0.26087815     0.18300
C1473       C  0.88947961  0.21966456  0.25806375     0.15500
C1474       C  0.86338484  0.22582670  0.26096675    -0.18900
C1475       C  0.89665544  0.19521854  0.25098023    -0.20800
C1476       C  0.92199855  0.19005297  0.24435504    -0.13300
C1477       C  0.94076551  0.20921386  0.24444392     0.03400
C1478       C  0.93425211  0.23317597  0.25413133    -0.25500
H1479       H  0.86959398  0.28784177  0.27709497     0.08400
H1480       H  0.91532630  0.27753677  0.27135768     0.12000
H1481       H  0.84875328  0.21164542  0.25752318     0.12000
H1482       H  0.88241838  0.18038484  0.24927101     0.11700
H1483       H  0.92657196  0.17127521  0.23751643     0.12300
H1484       H  0.94850295  0.24808792  0.25440115     0.14200
C1485       C  0.03361088  0.22459328  0.22400450    -0.05800
C1486       C  0.04974117  0.22920895  0.20306426    -0.05700
C1487       C  0.07542637  0.23582025  0.20664093    -0.23900
C1488       C  0.08574243  0.23769148  0.23129398     0.18300
C1489       C  0.06963643  0.23431718  0.25265339     0.15500
C1490       C  0.04346734  0.22803565  0.24889170    -0.18900
C1491       C  0.08034139  0.23631105  0.27728356    -0.20800
C1492       C  0.10678919  0.24069584  0.28063095    -0.13300
C1493       C  0.12307329  0.24302617  0.25941645     0.03400
C1494       C  0.11212563  0.24205696  0.23479314    -0.25500
H1495       H  0.04263669  0.22689991  0.18372857     0.08400
H1496       H  0.08746006  0.23858500  0.19006357     0.12000
H1497       H  0.03130626  0.22435928  0.26519479     0.12000
H1498       H  0.06837472  0.23394637  0.29395693     0.11700
H1499       H  0.11459643  0.24162478  0.29981861     0.12300
H1500       H  0.12422149  0.24433211  0.21818468     0.14200
C1501       C  0.73762066  0.89292004  0.21681733    -0.05800
C1502       C  0.74539799  0.89501208  0.19127172    -0.05700
C1503       C  0.75112920  0.91848669  0.18057214    -0.23900
C1504       C  0.74962134  0.94037790  0.19536958     0.18300
C1505       C  0.74032120  0.93884230  0.22065421     0.15500
C1506       C  0.73401274  0.91501602  0.23121800    -0.18900
C1507       C  0.73898621  0.96098394  0.23527332    -0.20800
C1508       C  0.74809828  0.98399906  0.22546320    -0.13300
C1509       C  0.75873720  0.98530996  0.20086343     0.03400
C1510       C  0.75861181  0.96349027  0.18566536    -0.25500
H1511       H  0.74818177  0.87818726  0.17987058     0.08400
H1512       H  0.75797934  0.91934293  0.16110280     0.12000
H1513       H  0.72822653  0.91350302  0.25100018     0.12000
H1514       H  0.73178565  0.96033388  0.25461531     0.11700
H1515       H  0.74780085  0.00053570  0.23756217     0.12300
H1516       H  0.76640494  0.96424095  0.16653857     0.14200
C1517       C  0.77068174  0.17154025  0.22708175    -0.05800
C1518       C  0.79149797  0.16800884  0.21046202    -0.05700
C1519       C  0.79799209  0.14390184  0.20184408    -0.23900
C1520       C  0.78372895  0.12278759  0.20952240     0.18300
C1521       C  0.76308281  0.12588465  0.22658523     0.15500
C1522       C  0.75676731  0.15020044  0.23537928    -0.18900
C1523       C  0.74883015  0.10465335  0.23414093    -0.20800
C1524       C  0.75460753  0.08069770  0.22441106    -0.13300
C1525       C  0.77479591  0.07749901  0.20699128     0.03400
C1526       C  0.78950612  0.09871677  0.19997255    -0.25500
H1527       H  0.80272839  0.18395142  0.20388765     0.08400
H1528       H  0.81396130  0.14183183  0.18884767     0.12000
H1529       H  0.74069355  0.15251914  0.24821323     0.12000
H1530       H  0.73296528  0.10662680  0.24727262     0.11700
H1531       H  0.74298050  0.06475297  0.23024242     0.12300
H1532       H  0.80524896  0.09666540  0.18669782     0.14200
C1533       C  0.90164668  0.03678132  0.09002772    -0.05800
C1534       C  0.90471075  0.05346368  0.11057995    -0.05700
C1535       C  0.88577836  0.05529201  0.12929018    -0.23900
C1536       C  0.86376148  0.04005589  0.12798221     0.18300
C1537       C  0.86100772  0.02258506  0.10780732     0.15500
C1538       C  0.87981351  0.02130217  0.08878091    -0.18900
C1539       C  0.83940546  0.00680215  0.10692747    -0.20800
C1540       C  0.82057212  0.00840812  0.12575565    -0.13300
C1541       C  0.82277102  0.02613911  0.14550841     0.03400
C1542       C  0.84445604  0.04196781  0.14647427    -0.25500
H1543       H  0.92144141  0.06557089  0.11176232     0.08400
H1544       H  0.88830674  0.06866014  0.14470554     0.12000
H1545       H  0.87755951  0.00822530  0.07305184     0.12000
H1546       H  0.83707907  0.99321039  0.09168434     0.11700
H1547       H  0.80405145  0.99603162  0.12466458     0.12300
H1548       H  0.84650264  0.05547524  0.16184907     0.14200
C1549       C  0.03748229  0.80747638  0.17288640    -0.05800
C1550       C  0.05732237  0.82337737  0.16418520    -0.05700
C1551       C  0.08274489  0.81920295  0.17137057    -0.23900
C1552       C  0.08916263  0.79896232  0.18743904     0.18300
C1553       C  0.06986548  0.78224238  0.19594948     0.15500
C1554       C  0.04399576  0.78655371  0.18857069    -0.18900
C1555       C  0.07689670  0.76191131  0.21202341    -0.20800
C1556       C  0.10256931  0.75875440  0.22009885    -0.13300
C1557       C  0.12164947  0.77585650  0.21219645     0.03400
C1558       C  0.11465294  0.79562798  0.19542958    -0.25500
H1559       H  0.05327899  0.83952461  0.15198344     0.08400
H1560       H  0.09739053  0.83209157  0.16458494     0.12000
H1561       H  0.02906276  0.77398923  0.19531605     0.12000
H1562       H  0.06249359  0.74874018  0.21871683     0.11700
H1563       H  0.10735476  0.74331077  0.23296014     0.12300
H1564       H  0.12902934  0.80889552  0.18879748     0.14200
C1565       C  0.94247993  0.79443366  0.17794413    -0.05800
C1566       C  0.94342353  0.78296300  0.20221394    -0.05700
C1567       C  0.92083652  0.77462788  0.21406079    -0.23900
C1568       C  0.89686860  0.77752630  0.20182986     0.18300
C1569       C  0.89593156  0.78791302  0.17688993     0.15500
C1570       C  0.91864214  0.79612819  0.16512651    -0.18900
C1571       C  0.87213728  0.79114462  0.16458379    -0.20800
C1572       C  0.84938992  0.78561490  0.17739316    -0.13300
C1573       C  0.84989936  0.77624549  0.20255644     0.03400
C1574       C  0.87376540  0.77144314  0.21447429    -0.25500
H1575       H  0.96147248  0.78148474  0.21255191     0.08400
H1576       H  0.92203224  0.76667021  0.23313383     0.12000
H1577       H  0.91759780  0.80476970  0.14632225     0.12000
H1578       H  0.87104745  0.79900237  0.14545135     0.11700
H1579       H  0.83119226  0.78958341  0.16795472     0.12300
H1580       H  0.87429251  0.76462325  0.23402077     0.14200
C1581       C  0.98625174  0.94751612  0.07997506    -0.05800
C1582       C  0.99952775  0.94996194  0.10329791    -0.05700
C1583       C  0.00125347  0.92957446  0.12035925    -0.23900
C1584       C  0.98924841  0.90654459  0.11463902     0.18300
C1585       C  0.97502485  0.90418943  0.09167731     0.15500
C1586       C  0.97398507  0.92451933  0.07432288    -0.18900
C1587       C  0.96208543  0.88151636  0.08646402    -0.20800
C1588       C  0.96359984  0.86118521  0.10361047    -0.13300
C1589       C  0.97862554  0.86298891  0.12583246     0.03400
C1590       C  0.99133935  0.88576013  0.13135522    -0.25500
H1591       H  0.00911491  0.96749081  0.10807479     0.08400
H1592       H  0.01204204  0.93179437  0.13797312     0.12000
H1593       H  0.96334220  0.92256199  0.05657534     0.12000
H1594       H  0.95089817  0.87947044  0.06907764     0.11700
H1595       H  0.95376579  0.84372148  0.09910126     0.12300
H1596       H  0.00278272  0.88725388  0.14866872     0.14200
C1597       C  0.21806672  0.88941559  0.77586991    -0.05800
C1598       C  0.22158910  0.90699140  0.75598978    -0.05700
C1599       C  0.21886604  0.93288545  0.76046263    -0.23900
C1600       C  0.21303349  0.94153871  0.78498796     0.18300
C1601       C  0.21088909  0.92393299  0.80531921     0.15500
C1602       C  0.21314670  0.89802252  0.80057919    -0.18900
C1603       C  0.20572525  0.93244338  0.82995303    -0.20800
C1604       C  0.20082934  0.95795972  0.83411903    -0.13300
C1605       C  0.20090827  0.97540649  0.81372403     0.03400
C1606       C  0.20815830  0.96728198  0.78934494    -0.25500
H1607       H  0.22565943  0.90063283  0.73681779     0.08400
H1608       H  0.22080883  0.94606383  0.74468262     0.12000
H1609       H  0.21093435  0.88453194  0.81606158     0.12000
H1610       H  0.20449158  0.91925418  0.84581350     0.11700
H1611       H  0.19573449  0.96384427  0.85320079     0.12300
H1612       H  0.20835667  0.98057951  0.77351654     0.14200
C1613       C  0.21930574  0.15247824  0.77167827    -0.05800
C1614       C  0.24050883  0.13804069  0.77991336    -0.05700
C1615       C  0.23772487  0.11237172  0.78542391    -0.23900
C1616       C  0.21376187  0.10075094  0.78231648     0.18300
C1617       C  0.19253907  0.11504995  0.77305524     0.15500
C1618       C  0.19540982  0.14093319  0.76799874    -0.18900
C1619       C  0.16858853  0.10341283  0.76993787    -0.20800
C1620       C  0.16519938  0.07842740  0.77785485    -0.13300
C1621       C  0.18583246  0.06463426  0.78834773     0.03400
C1622       C  0.21032371  0.07545231  0.78956893    -0.25500
H1623       H  0.25913606  0.14680740  0.78255181     0.08400
H1624       H  0.25417756  0.10172043  0.79243411     0.12000
H1625       H  0.17918132  0.15208125  0.76121059     0.12000
H1626       H  0.15219762  0.11400783  0.76270158     0.11700
H1627       H  0.14611329  0.07029563  0.77721513     0.12300
H1628       H  0.22609881  0.06492596  0.79821450     0.14200
C1629       C  0.14195403  0.02838234  0.86106694    -0.05800
C1630       C  0.14587641  0.01461898  0.88374933    -0.05700
C1631       C  0.12814909  0.01611809  0.90341803    -0.23900
C1632       C  0.10601652  0.03096732  0.90037445     0.18300
C1633       C  0.10191772  0.04493557  0.87759457     0.15500
C1634       C  0.12020155  0.04390689  0.85822770    -0.18900
C1635       C  0.07926315  0.05906060  0.87431091    -0.20800
C1636       C  0.06059439  0.05893348  0.89329312    -0.13300
C1637       C  0.06472110  0.04517322  0.91593542     0.03400
C1638       C  0.08759213  0.03150455  0.91950479    -0.25500
H1639       H  0.16267797  0.00267492  0.88625120     0.08400
H1640       H  0.13147488  0.00528237  0.92076379     0.12000
H1641       H  0.11701589  0.05434867  0.84060172     0.12000
H1642       H  0.07580120  0.06978984  0.85693141     0.11700
H1643       H  0.04302426  0.06965224  0.89037516     0.12300
H1644       H  0.09066440  0.02055401  0.93684937     0.14200
C1645       C  0.93015493  0.83826495  0.78885867    -0.05800
C1646       C  0.92625295  0.82688502  0.76491319    -0.05700
C1647       C  0.90200583  0.81774426  0.75778697    -0.23900
C1648       C  0.88121788  0.81953345  0.77458647     0.18300
C1649       C  0.88500514  0.83093906  0.79868529     0.15500
C1650       C  0.90927706  0.84035902  0.80556324    -0.18900
C1651       C  0.86447723  0.83268176  0.81565116    -0.20800
C1652       C  0.84032083  0.82357128  0.80877338    -0.13300
C1653       C  0.83599769  0.81247971  0.78472480     0.03400
C1654       C  0.85672807  0.81026830  0.76774334    -0.25500
H1655       H  0.94197526  0.82510002  0.75160688     0.08400
H1656       H  0.89956648  0.80914754  0.73920547     0.12000
H1657       H  0.91199233  0.84890613  0.82414733     0.12000
H1658       H  0.86705284  0.84122194  0.83424813     0.11700
H1659       H  0.82488242  0.82539891  0.82240751     0.12300
H1660       H  0.85372187  0.80187239  0.74913648     0.14200
C1661       C  0.11585968  0.81917340  0.75125821    -0.05800
C1662       C  0.11362284  0.84525817  0.75582005    -0.05700
C1663       C  0.09021551  0.85587081  0.76296068    -0.23900
C1664       C  0.06856555  0.84053701  0.76596127     0.18300
C1665       C  0.07002515  0.81452494  0.75981977     0.15500
C1666       C  0.09374439  0.80395111  0.75233245    -0.18900
C1667       C  0.04802627  0.79943624  0.76252562    -0.20800
C1668       C  0.02526518  0.80978118  0.77222000    -0.13300
C1669       C  0.02426628  0.83523992  0.77981236     0.03400
C1670       C  0.04584360  0.85063103  0.77606602    -0.25500
H1671       H  0.13045685  0.85726470  0.75516819     0.08400
H1672       H  0.08936275  0.87587505  0.76730041     0.12000
H1673       H  0.09538501  0.78375869  0.74918704     0.12000
H1674       H  0.04860251  0.77952606  0.75775485     0.11700
H1675       H  0.00875191  0.79761873  0.77477176     0.12300
H1676       H  0.04507634  0.87039687  0.78145300     0.14200
C1677       C  0.97693469  0.96138555  0.90966365    -0.05800
C1678       C  0.95876822  0.96610932  0.89019524    -0.05700
C1679       C  0.95588824  0.94937105  0.86976327    -0.23900
C1680       C  0.97165943  0.92788571  0.86795557     0.18300
C1681       C  0.99066715  0.92339147  0.88691935     0.15500
C1682       C  0.99283228  0.93987007  0.90793037    -0.18900
C1683       C  0.00725482  0.90256656  0.88441695    -0.20800
C1684       C  0.00489904  0.88626717  0.86352866    -0.13300
C1685       C  0.98547103  0.89001202  0.84509124     0.03400
C1686       C  0.96884290  0.91090292  0.84747118    -0.25500
H1687       H  0.94639699  0.98258220  0.89106985     0.08400
H1688       H  0.94138442  0.95330525  0.85531347     0.12000
H1689       H  0.00718346  0.93627812  0.92262938     0.12000
H1690       H  0.02211144  0.89891772  0.89857989     0.11700
H1691       H  0.01792712  0.87032320  0.86208012     0.12300
H1692       H  0.95402919  0.91415584  0.83314919     0.14200
C1693       C  0.93385106  0.22122496  0.76421804    -0.05800
C1694       C  0.93263015  0.24439739  0.75089810    -0.05700
C1695       C  0.90886938  0.25417098  0.74234364    -0.23900
C1696       C  0.88591973  0.24094357  0.74698125     0.18300
C1697       C  0.88738699  0.21673210  0.75853523     0.15500
C1698       C  0.91118602  0.20701269  0.76679028    -0.18900
C1699       C  0.86485479  0.20315348  0.76315010    -0.20800
C1700       C  0.84094496  0.21415252  0.75828672    -0.13300
C1701       C  0.83886483  0.23891361  0.74847117     0.03400
C1702       C  0.86152636  0.25190047  0.74172349    -0.25500
H1703       H  0.94977392  0.25569840  0.74847651     0.08400
H1704       H  0.90832721  0.27261592  0.73323595     0.12000
H1705       H  0.91180589  0.18888654  0.77658536     0.12000
H1706       H  0.86566328  0.18443104  0.77166853     0.11700
H1707       H  0.82386958  0.20354073  0.76318877     0.12300
H1708       H  0.86022391  0.27095968  0.73408020     0.14200
C1709       C  0.02800574  0.22608640  0.78274643    -0.05800
C1710       C  0.04397683  0.23232586  0.80349670    -0.05700
C1711       C  0.06994069  0.23750475  0.79995661    -0.23900
C1712       C  0.08065312  0.23619089  0.77558364     0.18300
C1713       C  0.06478678  0.23095481  0.75425271     0.15500
C1714       C  0.03832652  0.22618972  0.75792143    -0.18900
C1715       C  0.07595837  0.22983451  0.72989740    -0.20800
C1716       C  0.10256190  0.23337842  0.72689205    -0.13300
C1717       C  0.11847831  0.23778875  0.74822854     0.03400
C1718       C  0.10715363  0.23948057  0.77244531    -0.25500
H1719       H  0.03644593  0.23253451  0.82272076     0.08400
H1720       H  0.08183245  0.24174149  0.81645023     0.12000
H1721       H  0.02619775  0.22123596  0.74181214     0.12000
H1722       H  0.06418857  0.22596366  0.71323527     0.11700
H1723       H  0.11073440  0.23229353  0.70797856     0.12300
H1724       H  0.11901531  0.24344505  0.78903798     0.14200
C1725       C  0.97140897  0.17597813  0.83766221    -0.05800
C1726       C  0.95117012  0.15844142  0.83845600    -0.05700
C1727       C  0.94808997  0.14246633  0.85955405    -0.23900
C1728       C  0.96502200  0.14390430  0.88043383     0.18300
C1729       C  0.98490753  0.16207182  0.88033641     0.15500
C1730       C  0.98814143  0.17782094  0.85884527    -0.18900
C1731       C  0.00147251  0.16380207  0.90155427    -0.20800
C1732       C  0.99903933  0.14698173  0.92215691    -0.13300
C1733       C  0.98024943  0.12798317  0.92169401     0.03400
C1734       C  0.96290825  0.12692951  0.90102558    -0.25500
H1735       H  0.93798985  0.15668916  0.82246794     0.08400
H1736       H  0.93265236  0.12874858  0.85938768     0.12000
H1737       H  0.00360990  0.19151632  0.85863384     0.12000
H1738       H  0.01668801  0.17774953  0.90194190     0.11700
H1739       H  0.01264972  0.14799636  0.93786485     0.12300
H1740       H  0.94824976  0.11238404  0.90066093     0.14200
C1741       C  0.77667931  0.98828541  0.77931100    -0.05800
C1742       C  0.75142360  0.98692143  0.76963215    -0.05700
C1743       C  0.74169145  0.96402436  0.76021415    -0.23900
C1744       C  0.75705192  0.94210988  0.76035633     0.18300
C1745       C  0.78293186  0.94378970  0.76865513     0.15500
C1746       C  0.79256357  0.96678777  0.77779362    -0.18900
C1747       C  0.79842496  0.92209165  0.76919048    -0.20800
C1748       C  0.78793677  0.89859781  0.76337584    -0.13300
C1749       C  0.76195967  0.89639314  0.75636045     0.03400
C1750       C  0.74673345  0.91831778  0.75385078    -0.25500
H1751       H  0.73878828  0.00320502  0.77050749     0.08400
H1752       H  0.72185866  0.96322482  0.75381454     0.12000
H1753       H  0.81218108  0.96761073  0.78487780     0.12000
H1754       H  0.81832513  0.92308754  0.77535812     0.11700
H1755       H  0.79989525  0.88186054  0.76537113     0.12300
H1756       H  0.72658694  0.91663016  0.74871454     0.14200
C1757       C  0.74256803  0.16650414  0.76854389    -0.05800
C1758       C  0.73577128  0.14893267  0.74955413    -0.05700
C1759       C  0.74094758  0.12303599  0.75290529    -0.23900
C1760       C  0.75277948  0.11416962  0.77543325     0.18300
C1761       C  0.75872297  0.13167231  0.79492498     0.15500
C1762       C  0.75372547  0.15753856  0.79134573    -0.18900
C1763       C  0.77004124  0.12317985  0.81765027    -0.20800
C1764       C  0.77647550  0.09779857  0.82076104    -0.13300
C1765       C  0.77194063  0.08014141  0.80119584     0.03400
C1766       C  0.75938503  0.08836431  0.77867494    -0.25500
H1767       H  0.72703299  0.15528252  0.73180989     0.08400
H1768       H  0.73604050  0.11002606  0.73773955     0.12000
H1769       H  0.75871018  0.17074061  0.80634656     0.12000
H1770       H  0.77441101  0.13628167  0.83290595     0.11700
H1771       H  0.78565720  0.09213804  0.83852123     0.12300
H1772       H  0.75566595  0.07504111  0.76345050     0.14200
C1773       C  0.83215577  0.02489327  0.84634413    -0.05800
C1774       C  0.85219711  0.00718487  0.84418001    -0.05700
C1775       C  0.87246757  0.00683702  0.86197653    -0.23900
C1776       C  0.87276375  0.02391902  0.88243538     0.18300
C1777       C  0.85198975  0.04090900  0.88542737     0.15500
C1778       C  0.83201812  0.04140600  0.86732046    -0.18900
C1779       C  0.85165493  0.05736880  0.90632728    -0.20800
C1780       C  0.87189562  0.05724998  0.92398766    -0.13300
C1781       C  0.89308438  0.04112694  0.92072750     0.03400
C1782       C  0.89343367  0.02443471  0.89990749    -0.25500
H1783       H  0.85267836  0.99426238  0.82822322     0.08400
H1784       H  0.88807379  0.99346071  0.85954835     0.12000
H1785       H  0.81642354  0.05487568  0.86944607     0.12000
H1786       H  0.83575678  0.07036046  0.90899705     0.11700
H1787       H  0.87124320  0.07010262  0.94000989     0.12300
H1788       H  0.90953002  0.01161528  0.89761383     0.14200
C1789       C  0.17436960  0.82251713  0.05103467    -0.05800
C1790       C  0.15548547  0.82594113  0.06984486    -0.05700
C1791       C  0.16074140  0.82054171  0.09539566    -0.23900
C1792       C  0.18501535  0.81160521  0.10275344     0.18300
C1793       C  0.20400225  0.80733999  0.08406500     0.15500
C1794       C  0.19853349  0.81270771  0.05825623    -0.18900
C1795       C  0.22824694  0.79822821  0.09163591    -0.20800
C1796       C  0.23363578  0.79357685  0.11744578    -0.13300
C1797       C  0.21494988  0.79816882  0.13615270     0.03400
C1798       C  0.19061444  0.80711014  0.12856975    -0.25500
H1799       H  0.13662240  0.83327935  0.06491507     0.08400
H1800       H  0.14591688  0.82373969  0.10945577     0.12000
H1801       H  0.21329802  0.81004472  0.04402404     0.12000
H1802       H  0.24306477  0.79481304  0.07763381     0.11700
H1803       H  0.25254479  0.78664775  0.12279887     0.12300
H1804       H  0.17591775  0.81043281  0.14274919     0.14200
C1805       C  0.19687246  0.82902468  0.95927348    -0.05800
C1806       C  0.20814805  0.80490433  0.95763880    -0.05700
C1807       C  0.21992769  0.79711466  0.93504384    -0.23900
C1808       C  0.22066821  0.81336671  0.91378328     0.18300
C1809       C  0.21061873  0.83816902  0.91581351     0.15500
C1810       C  0.19895846  0.84584242  0.93852996    -0.18900
C1811       C  0.21096846  0.85440531  0.89459878    -0.20800
C1812       C  0.21933853  0.84552820  0.87106159    -0.13300
C1813       C  0.22805209  0.82049773  0.86846709     0.03400
C1814       C  0.22975360  0.80479219  0.89012411    -0.25500
H1815       H  0.20674799  0.79162537  0.97338127     0.08400
H1816       H  0.22757536  0.77806937  0.93388741     0.12000
H1817       H  0.19051786  0.86458366  0.93968771     0.12000
H1818       H  0.20346655  0.87350685  0.89586025     0.11700
H1819       H  0.21779653  0.85782887  0.85451839     0.12300
H1820       H  0.23603494  0.78533239  0.88809372     0.14200
C1821       C  0.12262920  0.87463123  0.99374367    -0.05800
C1822       C  0.09824112  0.86783066  0.00266766    -0.05700
C1823       C  0.07834894  0.88558290  0.00314604    -0.23900
C1824       C  0.08284063  0.91060048  0.99542186     0.18300
C1825       C  0.10732019  0.91749034  0.98609137     0.15500
C1826       C  0.12695141  0.89928521  0.98482182    -0.18900
C1827       C  0.11201211  0.94266737  0.97911653    -0.20800
C1828       C  0.09281013  0.96095630  0.98180087    -0.13300
C1829       C  0.06843696  0.95434168  0.99115267     0.03400
C1830       C  0.06350381  0.92898255  0.99760837    -0.25500
H1831       H  0.09478037  0.84886530  0.00977885     0.08400
H1832       H  0.05974058  0.87997473  0.01037405     0.12000
H1833       H  0.14595413  0.90462025  0.97837352     0.12000
H1834       H  0.13065123  0.94829956  0.97198299     0.11700
H1835       H  0.09702739  0.98031500  0.97643389     0.12300
H1836       H  0.04485491  0.92365646  0.00498379     0.14200
C1837       C  0.74371406  0.26158335  0.14084393    -0.05800
C1838       C  0.72174233  0.26268184  0.12496184    -0.05700
C1839       C  0.72333486  0.25736358  0.09874317    -0.23900
C1840       C  0.74696214  0.25086609  0.08767316     0.18300
C1841       C  0.76926494  0.25051176  0.10328905     0.15500
C1842       C  0.76754389  0.25588012  0.12954250    -0.18900
C1843       C  0.79294627  0.24412213  0.09257765    -0.20800
C1844       C  0.79445071  0.23704899  0.06701978    -0.13300
C1845       C  0.77239533  0.23624818  0.05126117     0.03400
C1846       C  0.74864417  0.24391866  0.06159651    -0.25500
H1847       H  0.70312530  0.26713761  0.13290207     0.08400
H1848       H  0.70596260  0.25788635  0.08722176     0.12000
H1849       H  0.78480756  0.25515782  0.14124824     0.12000
H1850       H  0.81029666  0.24393718  0.10415760     0.11700
H1851       H  0.81305207  0.23154460  0.05968468     0.12300
H1852       H  0.73143363  0.24326887  0.04984169     0.14200
C1853       C  0.74842771  0.22681303  0.95845504    -0.05800
C1854       C  0.73758193  0.25109096  0.95578950    -0.05700
C1855       C  0.72728551  0.25922552  0.93225006    -0.23900
C1856       C  0.72767595  0.24326404  0.91087808     0.18300
C1857       C  0.73756079  0.21845590  0.91365056     0.15500
C1858       C  0.74763812  0.21039584  0.93731638    -0.18900
C1859       C  0.73846064  0.20249431  0.89238308    -0.20800
C1860       C  0.73130530  0.21154805  0.86825939    -0.13300
C1861       C  0.72255281  0.23653291  0.86495434     0.03400
C1862       C  0.71977330  0.25205304  0.88653137    -0.25500
H1863       H  0.73800101  0.26417418  0.97160795     0.08400
H1864       H  0.71980328  0.27831511  0.93055185     0.12000
H1865       H  0.75577066  0.19154221  0.93898254     0.12000
H1866       H  0.74588470  0.18338271  0.89417635     0.11700
H1867       H  0.73368715  0.19933810  0.85188910     0.12300
H1868       H  0.71344756  0.27148199  0.88407296     0.14200
C1869       C  0.89815707  0.12266883  0.00916596    -0.05800
C1870       C  0.90236524  0.14522528  0.02256140    -0.05700
C1871       C  0.88333946  0.16391654  0.02325909    -0.23900
C1872       C  0.86000760  0.16054933  0.01013819     0.18300
C1873       C  0.85587638  0.13823834  0.99597048     0.15500
C1874       C  0.87480448  0.11927170  0.99591861    -0.18900
C1875       C  0.83291984  0.13535179  0.98204586    -0.20800
C1876       C  0.81397951  0.15419206  0.98260209    -0.13300
C1877       C  0.81749409  0.17588939  0.99753626     0.03400
C1878       C  0.84067803  0.17905183  0.01107482    -0.25500
H1879       H  0.92024629  0.14822936  0.03281501     0.08400
H1880       H  0.88687163  0.18100105  0.03404872     0.12000
H1881       H  0.87160068  0.10210380  0.98512916     0.12000
H1882       H  0.82956334  0.11848363  0.97085918     0.11700
H1883       H  0.79624834  0.15145699  0.97201927     0.12300
H1884       H  0.84366265  0.19596020  0.02232907     0.14200
C1885       C  0.77801173  0.82785972  0.04721137    -0.05800
C1886       C  0.76168801  0.80683140  0.04951199    -0.05700
C1887       C  0.75421690  0.79815508  0.07370321    -0.23900
C1888       C  0.76316548  0.81026697  0.09586584     0.18300
C1889       C  0.77981903  0.83117377  0.09351529     0.15500
C1890       C  0.78696652  0.83979810  0.06942865    -0.18900
C1891       C  0.78922892  0.84328372  0.11528227    -0.20800
C1892       C  0.78214296  0.83489673  0.13937335    -0.13300
C1893       C  0.76544687  0.81420931  0.14225407     0.03400
C1894       C  0.75594515  0.80192402  0.12031429    -0.25500
H1895       H  0.75462568  0.79721390  0.03268020     0.08400
H1896       H  0.74151366  0.78200718  0.07507966     0.12000
H1897       H  0.79987233  0.85581155  0.06812965     0.12000
H1898       H  0.80208104  0.85930962  0.11368746     0.11700
H1899       H  0.78977675  0.84478556  0.15579986     0.12300
H1900       H  0.74319889  0.78585383  0.12222685     0.14200
C1901       C  0.79278592  0.81766958  0.95441788    -0.05800
C1902       C  0.81112004  0.82158500  0.93524061    -0.05700
C1903       C  0.80733053  0.81195532  0.91086793    -0.23900
C1904       C  0.78495364  0.79850362  0.90513985     0.18300
C1905       C  0.76713333  0.79288300  0.92461885     0.15500
C1906       C  0.77137991  0.80221584  0.94938496    -0.18900
C1907       C  0.74464280  0.77949566  0.91849223    -0.20800
C1908       C  0.73908610  0.77338634  0.89305062    -0.13300
C1909       C  0.75600106  0.78055302  0.87356160     0.03400
C1910       C  0.77936248  0.79213302  0.87987719    -0.25500
H1911       H  0.82802520  0.83297969  0.93882756     0.08400
H1912       H  0.82128664  0.81612499  0.89618332     0.12000
H1913       H  0.75718497  0.79903535  0.96409455     0.12000
H1914       H  0.73080472  0.77487277  0.93313896     0.11700
H1915       H  0.72091328  0.76449716  0.88844063     0.12300
H1916       H  0.79253716  0.79753088  0.86484749     0.14200
C1917       C  0.82508289  0.89213535  0.99969539    -0.05800
C1918       C  0.82117262  0.91041802  0.01868632    -0.05700
C1919       C  0.83735076  0.93140229  0.02056896    -0.23900
C1920       C  0.85805704  0.93417632  0.00382178     0.18300
C1921       C  0.86186540  0.91607122  0.98440201     0.15500
C1922       C  0.84510212  0.89546575  0.98218081    -0.18900
C1923       C  0.88297961  0.91831613  0.96812300    -0.20800
C1924       C  0.90068067  0.93778520  0.97159859    -0.13300
C1925       C  0.89725366  0.95569107  0.99098743     0.03400
C1926       C  0.87554170  0.95420003  0.00668413    -0.25500
H1927       H  0.80578939  0.90829078  0.03234525     0.08400
H1928       H  0.83411454  0.94505159  0.03556985     0.12000
H1929       H  0.84846432  0.88136118  0.96762425     0.12000
H1930       H  0.88618594  0.90463179  0.95314722     0.11700
H1931       H  0.91720089  0.93882892  0.95916406     0.12300
H1932       H  0.87292274  0.96791274  0.02176794     0.14200
loop_ 
_geom_bond_atom_site_label_1 
_geom_bond_atom_site_label_2 
_geom_bond_distance 
_geom_bond_site_symmetry_2 
_ccdc_geom_bond_type 
C1            N2   1.358       .  A
C1            N6   1.362       .  A
C1         C1885   1.479       .  S
N2            C3   1.351   1_554  A
C3            N4   1.353       .  A
C3         C1917   1.478       .  S
N4            C5   1.360       .  A
C5            N6   1.363   1_556  A
C5         C1901   1.476       .  S
C7            N8   1.370       .  A
C7           N12   1.357       .  A
C7         C1845   1.495       .  S
N8            C9   1.374   1_554  A
C9           N10   1.362       .  A
C9         C1853   1.494       .  S
N10          C11   1.354       .  A
C11          N12   1.351   1_556  A
C11        C1877   1.476       .  S
C13          N14   1.355       .  A
C13          N18   1.363       .  A
C13        C1789   1.482       .  S
N14          C15   1.350   1_554  A
C15          N16   1.354       .  A
C15        C1821   1.465       .  S
N16          C17   1.361       .  A
C17          N18   1.364   1_556  A
C17        C1805   1.479       .  S
C19          N20   1.355       .  A
C19          N24   1.365       .  A
C19        C1765   1.488       .  S
N20          C21   1.350       .  A
C21          N22   1.356       .  A
C21        C1773   1.482       .  S
N22          C23   1.365       .  A
C23          N24   1.369       .  A
C23        C1741   1.487   1_545  S
C25          N26   1.367       .  A
C25          N30   1.361       .  A
C25        C1693   1.491       .  S
N26          C27   1.366   1_655  A
C27          N28   1.360   1_455  A
C27        C1709   1.483       .  S
N28          C29   1.355       .  A
C29          N30   1.356       .  A
C29        C1725   1.484       .  S
C31          N32   1.363       .  A
C31          N36   1.360       .  A
C31        C1645   1.485       .  S
N32          C33   1.361       .  A
C33          N34   1.361   1_655  A
C33        C1685   1.486       .  S
N34          C35   1.362       .  A
C35          N36   1.358   1_455  A
C35        C1669   1.481       .  S
C37          N38   1.362       .  A
C37          N42   1.354       .  A
C37        C1621   1.460       .  S
N38          C39   1.363       .  A
C39          N40   1.354       .  A
C39        C1605   1.473   1_545  S
N40          C41   1.349       .  A
C41          N42   1.350       .  A
C41        C1629   1.462       .  S
C43          N44   1.369       .  A
C43          N48   1.362       .  A
C43        C1565   1.488       .  S
N44          C45   1.366   1_655  A
C45          N46   1.358       .  A
C45        C1549   1.491       .  S
N46          C47   1.350   1_455  A
C47          N48   1.355       .  A
C47        C1589   1.472       .  S
C49          N50   1.359       .  A
C49          N54   1.362       .  A
C49        C1525   1.486       .  S
N50          C51   1.356       .  A
C51          N52   1.358       .  A
C51        C1541   1.480       .  S
N52          C53   1.362       .  A
C53          N54   1.362       .  A
C53        C1509   1.487   1_545  S
C55          N56   1.369       .  A
C55          N60   1.356       .  A
C55        C1477   1.486       .  S
N56          C57   1.371   1_655  A
C57          N58   1.362       .  A
C57        C1485   1.487       .  S
N58          C59   1.354   1_455  A
C59          N60   1.349       .  A
C59        C1461   1.478       .  S
Zr61         O62   2.441       .  S
Zr61         O63   2.412       .  S
Zr61         O64   2.423       .  S
Zr61         O67   2.429       .  S
Zr61         O69   2.382       .  S
Zr61         O70   2.379       .  S
Zr61         O71   2.400       .  S
Zr61         O72   2.390       .  S
O62         H118   0.991       .  S
O62         H126   0.990       .  S
O63          C83   1.281       .  A
O64          C85   1.283       .  A
O65         Zr75   2.453       .  S
O65          C84   1.288       .  A
O66         Zr74   2.464       .  S
O66          C85   1.290       .  A
O67          C84   1.286       .  A
O68         Zr76   2.433       .  S
O68          C83   1.283       .  A
O69         Zr74   2.400       .  S
O69         Zr76   2.373       .  S
O70         Zr75   2.394       .  S
O70         Zr76   2.382       .  S
O70         H105   0.966       .  S
O71         Zr74   2.407       .  S
O71         Zr91   2.397       .  S
O71         H108   0.967       .  S
O72         Zr75   2.390       .  S
O72         Zr91   2.388       .  S
Zr73         O98   2.442       .  S
Zr73         O92   2.438       .  S
Zr73        O100   2.432       .  S
Zr73         O88   2.407       .  S
Zr73         O79   2.389       .  S
Zr73         O80   2.410       .  S
Zr73         O81   2.377       .  S
Zr73         O82   2.378       .  S
Zr74         O93   2.435       .  S
Zr74         O86   2.434       .  S
Zr74         O87   2.479       .  S
Zr74         O80   2.404       .  S
Zr74         O81   2.397       .  S
Zr75         O77   2.436       .  S
Zr75         O99   2.438       .  S
Zr75        O101   2.449       .  S
Zr75         O79   2.390       .  S
Zr75         O82   2.399       .  S
Zr76        O102   2.435       .  S
Zr76        O103   2.436       .  S
Zr76         O78   2.437       .  S
Zr76         O79   2.389       .  S
Zr76         O80   2.408       .  S
O77         H114   0.990       .  S
O78         H109   0.991       .  S
O78         H123   0.990       .  S
O80         H106   0.966       .  S
O81         Zr91   2.380       .  S
O82         Zr91   2.393       .  S
O82         H107   0.965       .  S
C83        C1413   1.474       .  S
C84        C1373   1.490       .  S
C85        C1397   1.482       .  S
O86         H122   0.989       .  S
O87          C89   1.291       .  A
O88          C89   1.278       .  A
C89        C1429   1.489       .  S
O90         Zr91   2.438       .  S
O90         H119   0.990       .  S
Zr91         O94   2.435       .  S
Zr91         O95   2.438       .  S
Zr91         O96   2.418       .  S
O92          C97   1.286       .  A
O93         H110   0.990       .  S
O93         H125   0.990       .  S
O94         H111   0.990       .  S
O95         H115   0.990       .  S
O95         H124   0.990       .  S
O96          C97   1.281       .  A
C97        C1445   1.482       .  S
O98         H117   0.991       .  S
O98         H121   0.991       .  S
O99         H113   0.990       .  S
O99         H120   0.990       .  S
O100        C104   1.285       .  A
O101        C104   1.287       .  A
O102        H112   0.990       .  S
O103        H116   0.990       .  S
C104       C1493   1.491       .  S
C127        N128   1.357       .  A
C127        N132   1.367       .  A
C127       C1437   1.486       .  S
N128        C129   1.351       .  A
C129        N130   1.355       .  A
C129       C1341   1.478       .  S
N130        C131   1.363       .  A
C131        N132   1.369       .  A
C131       C1357   1.491   1_545  S
Zr133       O134   2.438       .  S
Zr133       O135   2.400       .  S
Zr133       O136   2.420       .  S
Zr133       O139   2.410       .  S
Zr133       O141   2.374       .  S
Zr133       O142   2.379       .  S
Zr133       O143   2.393       .  S
Zr133       O144   2.392       .  S
O134        H190   0.991       .  S
O134        H198   0.990       .  S
O135        C155   1.279       .  A
O136        C157   1.283       .  A
O137       Zr147   2.458       .  S
O137        C156   1.288       .  A
O138       Zr146   2.448       .  S
O138        C157   1.286       .  A
O139        C156   1.282       .  A
O140       Zr148   2.452       .  S
O140        C155   1.286       .  A
O141       Zr146   2.395       .  S
O141       Zr148   2.374       .  S
O142       Zr147   2.388       .  S
O142       Zr148   2.377       .  S
O142        H177   0.967       .  S
O143       Zr146   2.407       .  S
O143       Zr163   2.397       .  S
O143        H180   0.967       .  S
O144       Zr147   2.397       .  S
O144       Zr163   2.390       .  S
Zr145       O170   2.441       .  S
Zr145       O164   2.428       .  S
Zr145       O172   2.409       .  S
Zr145       O160   2.423       .  S
Zr145       O151   2.402       .  S
Zr145       O152   2.400       .  S
Zr145       O153   2.373       .  S
Zr145       O154   2.378       .  S
Zr146       O165   2.436       .  S
Zr146       O158   2.436       .  S
Zr146       O159   2.460       .  S
Zr146       O152   2.398       .  S
Zr146       O153   2.392       .  S
Zr147       O149   2.434       .  S
Zr147       O171   2.435       .  S
Zr147       O173   2.457       .  S
Zr147       O151   2.393       .  S
Zr147       O154   2.393       .  S
Zr148       O174   2.436       .  S
Zr148       O175   2.437       .  S
Zr148       O150   2.436       .  S
Zr148       O151   2.404       .  S
Zr148       O152   2.409       .  S
O149        H186   0.989       .  S
O150        H181   0.990       .  S
O150        H195   0.990       .  S
O152        H178   0.965       .  S
O153       Zr163   2.378       .  S
O154       Zr163   2.377       .  S
O154        H179   0.966       .  S
C155       C1293   1.481       .  S
C156       C1309   1.476       .  S
C157       C1325   1.477       .  S
O158        H194   0.990       .  S
O159        C161   1.289       .  A
O160        C161   1.284       .  A
C161       C1365   1.484       .  S
O162       Zr163   2.436       .  S
O162        H191   0.990       .  S
Zr163       O166   2.434       .  S
Zr163       O167   2.439       .  S
Zr163       O168   2.422       .  S
O164        C169   1.284       .  A
O165        H182   0.990       .  S
O165        H197   0.990       .  S
O166        H183   0.990       .  S
O167        H187   0.990       .  S
O167        H196   0.990       .  S
O168        C169   1.282       .  A
C169       C1797   1.479       .  S
O170        H189   0.991       .  S
O170        H193   0.990       .  S
O171        H185   0.990       .  S
O171        H192   0.990       .  S
O172        C176   1.282       .  A
O173        C176   1.289       .  A
O174        H184   0.990       .  S
O175        H188   0.990       .  S
C176       C1557   1.489       .  S
Zr199       O200   2.439       .  S
Zr199       O201   2.426       .  S
Zr199       O202   2.450       .  S
Zr199       O205   2.438       .  S
Zr199       O207   2.378       .  S
Zr199       O208   2.390       .  S
Zr199       O209   2.401       .  S
Zr199       O210   2.403       .  S
O200        H256   0.990       .  S
O200        H264   0.990       .  S
O201        C221   1.284       .  A
O202        C223   1.287       .  A
O203       Zr213   2.463       .  S
O203        C222   1.291       .  A
O204       Zr212   2.436       .  S
O204        C223   1.284       .  A
O205        C222   1.288       .  A
O206       Zr214   2.433       .  S
O206        C221   1.283       .  A
O207       Zr212   2.400       .  S
O207       Zr214   2.378       .  S
O208       Zr213   2.403       .  S
O208       Zr214   2.374       .  S
O208        H243   0.966       .  S
O209       Zr212   2.400       .  S
O209       Zr229   2.397       .  S
O209        H246   0.966       .  S
O210       Zr213   2.403       .  S
O210       Zr229   2.391       .  S
Zr211       O236   2.442       .  S
Zr211       O230   2.422       .  S
Zr211       O238   2.408       .  S
Zr211       O226   2.422       .  S
Zr211       O217   2.405       .  S
Zr211       O218   2.398       .  S
Zr211       O219   2.373       .  S
Zr211       O220   2.379       .  S
Zr212       O231   2.436       .  S
Zr212       O224   2.435       .  S
Zr212       O225   2.452       .  S
Zr212       O218   2.401       .  S
Zr212       O219   2.386       .  S
Zr213       O215   2.434       .  S
Zr213       O237   2.437       .  S
Zr213       O239   2.484       .  S
Zr213       O217   2.399       .  S
Zr213       O220   2.387       .  S
Zr214       O240   2.436       .  S
Zr214       O241   2.435       .  S
Zr214       O216   2.437       .  S
Zr214       O217   2.404       .  S
Zr214       O218   2.403       .  S
O215        H252   0.991       .  S
O216        H247   0.991       .  S
O216        H261   0.990       .  S
O218        H244   0.966       .  S
O219       Zr229   2.379       .  S
O220       Zr229   2.367       .  S
O220        H245   0.965       .  S
C221       C1517   1.486       .  S
C222       C1837   1.501       .  S
C223       C1469   1.478       .  S
O224        H260   0.990       .  S
O225        C227   1.288       .  A
O226        C227   1.284       .  A
C227       C1253   1.490       .  S
O228       Zr229   2.435       .  S
O228        H257   0.990       .  S
Zr229       O232   2.434       .  S
Zr229       O233   2.438       .  S
Zr229       O234   2.433       .  S
O230        C235   1.284       .  A
O231        H248   0.990       .  S
O231        H263   0.990       .  S
O232        H249   0.990       .  S
O233        H253   0.990       .  S
O233        H262   0.990       .  S
O234        C235   1.284       .  A
C235       C1269   1.484       .  S
O236        H255   0.990       .  S
O236        H259   0.990       .  S
O237        H251   0.990       .  S
O237        H258   0.990       .  S
O238        C242   1.281       .  A
O239        C242   1.293       .  A
O240        H250   0.990       .  S
O241        H254   0.990       .  S
C242       C1285   1.482       .  S
Zr265       O266   2.441       .  S
Zr265       O267   2.425       .  S
Zr265       O268   2.431       .  S
Zr265       O271   2.433       .  S
Zr265       O273   2.381       .  S
Zr265       O274   2.380       .  S
Zr265       O275   2.408       .  S
Zr265       O276   2.398       .  S
O266        H322   0.991       .  S
O266        H330   0.990       .  S
O267        C287   1.283       .  A
O268        C289   1.284       .  A
O269       Zr279   2.443       .  S
O269        C288   1.287       .  A
O270       Zr278   2.434       .  S
O270        C289   1.283       .  A
O271        C288   1.286       .  A
O272       Zr280   2.452       .  S
O272        C287   1.286       .  A
O273       Zr278   2.405       .  S
O273       Zr280   2.378       .  S
O274       Zr279   2.397       .  S
O274       Zr280   2.379       .  S
O274        H309   0.965       .  S
O275       Zr278   2.412       .  S
O275       Zr295   2.399       .  S
O275        H312   0.966       .  S
O276       Zr279   2.405       .  S
O276       Zr295   2.391       .  S
Zr277       O302   2.438       .  S
Zr277       O296   2.410       .  S
Zr277       O304   2.407       .  S
Zr277       O292   2.406       .  S
Zr277       O283   2.396       .  S
Zr277       O284   2.401       .  S
Zr277       O285   2.373       .  S
Zr277       O286   2.376       .  S
Zr278       O297   2.439       .  S
Zr278       O290   2.435       .  S
Zr278       O291   2.472       .  S
Zr278       O284   2.397       .  S
Zr278       O285   2.381       .  S
Zr279       O281   2.434       .  S
Zr279       O303   2.438       .  S
Zr279       O305   2.464       .  S
Zr279       O283   2.393       .  S
Zr279       O286   2.388       .  S
Zr280       O306   2.434       .  S
Zr280       O307   2.435       .  S
Zr280       O282   2.436       .  S
Zr280       O283   2.408       .  S
Zr280       O284   2.411       .  S
O281        H318   0.991       .  S
O282        H313   0.990       .  S
O282        H327   0.990       .  S
O284        H310   0.965       .  S
O285       Zr295   2.374       .  S
O286       Zr295   2.374       .  S
O286        H311   0.965       .  S
C287       C1205   1.493       .  S
C288       C1213   1.490       .  S
C289       C1237   1.471       .  S
O290        H326   0.990       .  S
O291        C293   1.291       .  A
O292        C293   1.280       .  A
C293       C1573   1.480       .  S
O294       Zr295   2.435       .  S
O294        H323   0.990       .  S
Zr295       O298   2.435       .  S
Zr295       O299   2.438       .  S
Zr295       O300   2.430       .  S
O296        C301   1.281       .  A
O297        H314   0.990       .  S
O297        H329   0.990       .  S
O298        H315   0.989       .  S
O299        H319   0.990       .  S
O299        H328   0.990       .  S
O300        C301   1.283       .  A
C301       C1893   1.479       .  S
O302        H321   0.990       .  S
O302        H325   0.990       .  S
O303        H317   0.989       .  S
O303        H324   0.990       .  S
O304        C308   1.281       .  A
O305        C308   1.289       .  A
O306        H316   0.990       .  S
O307        H320   0.990       .  S
C308       C1501   1.477       .  S
C331        N332   1.367       .  A
C331        N336   1.364       .  A
C331       C1421   1.490       .  S
N332        C333   1.361       .  A
C333        N334   1.355   1_554  A
C333       C1173   1.484       .  S
N334        C335   1.359       .  A
C335        N336   1.361   1_556  A
C335       C1189   1.487       .  S
Zr337       O338   2.441       .  S
Zr337       O339   2.443       .  S
Zr337       O340   2.436       .  S
Zr337       O343   2.405       .  S
Zr337       O345   2.372       .  S
Zr337       O346   2.380       .  S
Zr337       O347   2.397       .  S
Zr337       O348   2.407       .  S
O338        H394   0.990       .  S
O338        H402   0.990       .  S
O339        C359   1.285       .  A
O340        C361   1.285       .  A
O341       Zr351   2.456       .  S
O341        C360   1.288       .  A
O342       Zr350   2.448       .  S
O342        C361   1.286       .  A
O343        C360   1.281       .  A
O344       Zr352   2.394       .  S
O344        C359   1.276       .  A
O345       Zr350   2.395       .  S
O345       Zr352   2.389       .  S
O346       Zr351   2.392       .  S
O346       Zr352   2.379       .  S
O346        H381   0.966       .  S
O347       Zr350   2.395       .  S
O347       Zr367   2.394       .  S
O347        H384   0.966       .  S
O348       Zr351   2.398       .  S
O348       Zr367   2.406       .  S
Zr349       O374   2.443       .  S
Zr349       O368   2.403       .  S
Zr349       O376   2.431       .  S
Zr349       O364   2.427       .  S
Zr349       O355   2.390       .  S
Zr349       O356   2.392       .  S
Zr349       O357   2.377       .  S
Zr349       O358   2.380       .  S
Zr350       O369   2.437       .  S
Zr350       O362   2.434       .  S
Zr350       O363   2.433       .  S
Zr350       O356   2.403       .  S
Zr350       O357   2.396       .  S
Zr351       O353   2.434       .  S
Zr351       O375   2.436       .  S
Zr351       O377   2.448       .  S
Zr351       O355   2.395       .  S
Zr351       O358   2.396       .  S
Zr352       O378   2.436       .  S
Zr352       O379   2.437       .  S
Zr352       O354   2.437       .  S
Zr352       O355   2.388       .  S
Zr352       O356   2.376       .  S
O353        H390   0.990       .  S
O354        H385   0.990       .  S
O354        H399   0.990       .  S
O356        H382   0.966       .  S
O357       Zr367   2.373       .  S
O358       Zr367   2.373       .  S
O358        H383   0.965       .  S
C359       C1613   1.461       .  S
C360       C1181   1.481       .  S
C361       C1717   1.488       .  S
O362        H398   0.990       .  S
O363        C365   1.285       .  A
O364        C365   1.286       .  A
C365       C1125   1.471       .  S
O366       Zr367   2.435       .  S
O366        H395   0.990       .  S
Zr367       O370   2.435       .  S
Zr367       O371   2.436       .  S
Zr367       O372   2.448       .  S
O368        C373   1.280       .  A
O369        H386   0.990       .  S
O369        H401   0.990       .  S
O370        H387   0.990       .  S
O371        H391   0.990       .  S
O371        H400   0.990       .  S
O372        C373   1.286       .  A
C373       C1133   1.480       .  S
O374        H393   0.990       .  S
O374        H397   0.990       .  S
O375        H389   0.990       .  S
O375        H396   0.990       .  S
O376        C380   1.286       .  A
O377        C380   1.287       .  A
O378        H388   0.990       .  S
O379        H392   0.990       .  S
C380       C1149   1.482       .  S
Zr403       O404   2.439       .  S
Zr403       O405   2.429       .  S
Zr403       O406   2.399       .  S
Zr403       O409   2.398       .  S
Zr403       O411   2.372       .  S
Zr403       O412   2.374       .  S
Zr403       O413   2.401       .  S
Zr403       O414   2.401       .  S
O404        H460   0.990       .  S
O404        H468   0.990       .  S
O405        C425   1.284       .  A
O406        C427   1.279       .  A
O407       Zr417   2.470       .  S
O407        C426   1.291       .  A
O408       Zr416   2.457       .  S
O408        C427   1.288       .  A
O409        C426   1.279       .  A
O410       Zr418   2.408       .  S
O410        C425   1.279       .  A
O411       Zr416   2.392       .  S
O411       Zr418   2.381       .  S
O412       Zr417   2.387       .  S
O412       Zr418   2.376       .  S
O412        H447   0.966       .  S
O413       Zr416   2.395       .  S
O413       Zr433   2.408       .  S
O413        H450   0.967       .  S
O414       Zr417   2.388       .  S
O414       Zr433   2.404       .  S
Zr415       O440   2.441       .  S
Zr415       O434   2.400       .  S
Zr415       O442   2.407       .  S
Zr415       O430   2.411       .  S
Zr415       O421   2.393       .  S
Zr415       O422   2.391       .  S
Zr415       O423   2.373       .  S
Zr415       O424   2.380       .  S
Zr416       O435   2.436       .  S
Zr416       O428   2.436       .  S
Zr416       O429   2.453       .  S
Zr416       O422   2.403       .  S
Zr416       O423   2.392       .  S
Zr417       O419   2.434       .  S
Zr417       O441   2.435       .  S
Zr417       O443   2.449       .  S
Zr417       O421   2.401       .  S
Zr417       O424   2.395       .  S
Zr418       O444   2.436       .  S
Zr418       O445   2.436       .  S
Zr418       O420   2.435       .  S
Zr418       O421   2.386       .  S
Zr418       O422   2.392       .  S
O419        H456   0.990       .  S
O420        H451   0.990       .  S
O420        H465   0.990       .  S
O422        H448   0.966       .  S
O423       Zr433   2.373       .  S
O424       Zr433   2.369       .  S
O424        H449   0.966       .  S
C425       C1597   1.469       .  S
C426       C1661   1.477       .  S
C427       C1813   1.472       .  S
O428        H464   0.990       .  S
O429        C431   1.288       .  A
O430        C431   1.282       .  A
C431       C1085   1.473       .  S
O432       Zr433   2.435       .  S
O432        H461   0.990       .  S
Zr433       O436   2.436       .  S
Zr433       O437   2.438       .  S
Zr433       O438   2.454       .  S
O434        C439   1.280       .  A
O435        H452   0.990       .  S
O435        H467   0.990       .  S
O436        H453   0.990       .  S
O437        H457   0.990       .  S
O437        H466   0.990       .  S
O438        C439   1.287       .  A
C439       C1109   1.483       .  S
O440        H459   0.990       .  S
O440        H463   0.991       .  S
O441        H455   0.990       .  S
O441        H462   0.990       .  S
O442        C446   1.282       .  A
O443        C446   1.288       .  A
O444        H454   0.990       .  S
O445        H458   0.990       .  S
C446       C1069   1.472       .  S
Zr469       O470   2.439       .  S
Zr469       O471   2.435       .  S
Zr469       O472   2.421       .  S
Zr469       O475   2.419       .  S
Zr469       O477   2.376       .  S
Zr469       O478   2.375       .  S
Zr469       O479   2.404       .  S
Zr469       O480   2.403       .  S
O470        H526   0.990       .  S
O470        H534   0.990       .  S
O471        C491   1.286       .  A
O472        C493   1.283       .  A
O473       Zr483   2.470       .  S
O473        C492   1.291       .  A
O474       Zr482   2.458       .  S
O474        C493   1.289       .  A
O475        C492   1.284       .  A
O476       Zr484   2.431       .  S
O476        C491   1.283       .  A
O477       Zr482   2.401       .  S
O477       Zr484   2.382       .  S
O478       Zr483   2.393       .  S
O478       Zr484   2.369       .  S
O478        H513   0.966       .  S
O479       Zr482   2.402       .  S
O479       Zr499   2.396       .  S
O479        H516   0.966       .  S
O480       Zr483   2.401       .  S
O480       Zr499   2.404       .  S
Zr481       O506   2.442       .  S
Zr481       O500   2.428       .  S
Zr481       O508   2.406       .  S
Zr481       O496   2.422       .  S
Zr481       O487   2.402       .  S
Zr481       O488   2.398       .  S
Zr481       O489   2.377       .  S
Zr481       O490   2.379       .  S
Zr482       O501   2.436       .  S
Zr482       O494   2.434       .  S
Zr482       O495   2.461       .  S
Zr482       O488   2.401       .  S
Zr482       O489   2.398       .  S
Zr483       O485   2.435       .  S
Zr483       O507   2.436       .  S
Zr483       O509   2.460       .  S
Zr483       O487   2.406       .  S
Zr483       O490   2.403       .  S
Zr484       O510   2.435       .  S
Zr484       O511   2.435       .  S
Zr484       O486   2.436       .  S
Zr484       O487   2.399       .  S
Zr484       O488   2.389       .  S
O485        H522   0.990       .  S
O486        H517   0.990       .  S
O486        H531   0.990       .  S
O488        H514   0.966       .  S
O489       Zr499   2.382       .  S
O490       Zr499   2.377       .  S
O490        H515   0.965       .  S
C491       C1757   1.487       .  S
C492       C1701   1.489       .  S
C493       C1861   1.480       .  S
O494        H530   0.990       .  S
O495        C497   1.289       .  A
O496        C497   1.284       .  A
C497       C1045   1.485       .  S
O498       Zr499   2.436       .  S
O498        H527   0.990       .  S
Zr499       O502   2.436       .  S
Zr499       O503   2.439       .  S
Zr499       O504   2.430       .  S
O500        C505   1.283       .  A
O501        H518   0.990       .  S
O501        H533   0.990       .  S
O502        H519   0.991       .  S
O503        H523   0.990       .  S
O503        H532   0.989       .  S
O504        C505   1.282       .  A
C505       C1053   1.483       .  S
O506        H525   0.991       .  S
O506        H529   0.990       .  S
O507        H521   0.990       .  S
O507        H528   0.990       .  S
O508        C512   1.279       .  A
O509        C512   1.288       .  A
O510        H520   0.990       .  S
O511        H524   0.990       .  S
C512       C1021   1.484       .  S
Zr535       O536   2.439       .  S
Zr535       O537   2.404       .  S
Zr535       O538   2.419       .  S
Zr535       O541   2.411       .  S
Zr535       O543   2.372       .  S
Zr535       O544   2.379       .  S
Zr535       O545   2.395       .  S
Zr535       O546   2.392       .  S
O536        H592   0.991       .  S
O536        H600   0.990       .  S
O537        C557   1.279       .  A
O538        C559   1.283       .  A
O539       Zr549   2.451       .  S
O539        C558   1.287       .  A
O540       Zr548   2.436       .  S
O540        C559   1.284       .  A
O541        C558   1.282       .  A
O542       Zr550   2.455       .  S
O542        C557   1.287       .  A
O543       Zr548   2.396       .  S
O543       Zr550   2.374       .  S
O544       Zr549   2.394       .  S
O544       Zr550   2.369       .  S
O544        H579   0.968       .  S
O545       Zr548   2.405       .  S
O545       Zr565   2.388       .  S
O545        H582   0.966       .  S
O546       Zr549   2.398       .  S
O546       Zr565   2.387       .  S
Zr547       O572   2.442       .  S
Zr547       O566   2.431       .  S
Zr547       O574   2.412       .  S
Zr547       O562   2.424       .  S
Zr547       O553   2.405       .  S
Zr547       O554   2.402       .  S
Zr547       O555   2.371       .  S
Zr547       O556   2.379       .  S
Zr548       O567   2.436       .  S
Zr548       O560   2.434       .  S
Zr548       O561   2.453       .  S
Zr548       O554   2.396       .  S
Zr548       O555   2.387       .  S
Zr549       O551   2.437       .  S
Zr549       O573   2.436       .  S
Zr549       O575   2.454       .  S
Zr549       O553   2.400       .  S
Zr549       O556   2.387       .  S
Zr550       O576   2.435       .  S
Zr550       O577   2.436       .  S
Zr550       O552   2.438       .  S
Zr550       O553   2.408       .  S
Zr550       O554   2.408       .  S
O551        H588   0.990       .  S
O552        H583   0.990       .  S
O552        H597   0.990       .  S
O554        H580   0.965       .  S
O555       Zr565   2.383       .  S
O556       Zr565   2.373       .  S
O556        H581   0.966       .  S
C557       C1653   1.486       .  S
C558       C1749   1.472       .  S
C559       C1909   1.470       .  S
O560        H596   0.990       .  S
O561        C563   1.287       .  A
O562        C563   1.284       .  A
C563        C997   1.478       .  S
O564       Zr565   2.434       .  S
O564        H593   0.990       .  S
Zr565       O568   2.435       .  S
Zr565       O569   2.437       .  S
Zr565       O570   2.410       .  S
O566        C571   1.286       .  A
O567        H584   0.990       .  S
O567        H599   0.990       .  S
O568        H585   0.990       .  S
O569        H589   0.990       .  S
O569        H598   0.990       .  S
O570        C571   1.280       .  A
C571       C1005   1.479       .  S
O572        H591   0.990       .  S
O572        H595   0.990       .  S
O573        H587   0.990       .  S
O573        H594   0.990       .  S
O574        C578   1.282       .  A
O575        C578   1.288       .  A
O576        H586   0.989       .  S
O577        H590   0.990       .  S
C578        C973   1.472       .  S
C601        N602   1.363       .  A
C601        N606   1.353       .  A
C601       C1013   1.477       .  S
N602        C603   1.366       .  A
C603        N604   1.364       .  A
C603       C1093   1.481       .  S
N604        C605   1.355       .  A
C605        N606   1.348       .  A
C605        C957   1.470       .  S
C607        N608   1.366       .  A
C607        N612   1.362       .  A
C607       C1141   1.485       .  S
N608        C609   1.364       .  A
C609        N610   1.356       .  A
C609       C1101   1.481       .  S
N610        C611   1.351       .  A
C611        N612   1.353       .  A
C611        C949   1.475       .  S
C613        N614   1.368       .  A
C613        N618   1.362       .  A
C613       C1037   1.479       .  S
N614        C615   1.367       .  A
C615        N616   1.359       .  A
C615       C1157   1.490       .  S
N616        C617   1.352       .  A
C617        N618   1.354       .  A
C617        C925   1.478       .  S
C619        N620   1.356       .  A
C619        N624   1.366       .  A
C619       C1061   1.486       .  S
N620        C621   1.350       .  A
C621        N622   1.355       .  A
C621        C917   1.476       .  S
N622        C623   1.363       .  A
C623        N624   1.369       .  A
C623        C989   1.487       .  S
C625        N626   1.366       .  A
C625        N630   1.361       .  A
C625       C1277   1.493       .  S
N626        C627   1.365       .  A
C627        N628   1.361       .  A
C627        C893   1.489       .  S
N628        C629   1.362       .  A
C629        N630   1.360       .  A
C629       C1389   1.491       .  S
C631        N632   1.358       .  A
C631        N636   1.365       .  A
C631       C1261   1.484       .  S
N632        C633   1.351       .  A
C633        N634   1.352       .  A
C633        C877   1.472       .  S
N634        C635   1.357       .  A
C635        N636   1.364       .  A
C635       C1229   1.476       .  S
C637        N638   1.368       .  A
C637        N642   1.359       .  A
C637       C1221   1.481       .  S
N638        C639   1.369       .  A
C639        N640   1.358       .  A
C639       C1333   1.489       .  S
N640        C641   1.350       .  A
C641        N642   1.352       .  A
C641        C861   1.473       .  S
C643        N644   1.359       .  A
C643        N648   1.362       .  A
C643       C1405   1.477       .  S
N644        C645   1.352       .  A
C645        N646   1.354       .  A
C645        C845   1.471       .  S
N646        C647   1.362       .  A
C647        N648   1.362       .  A
C647       C1317   1.481       .  S
C649        N650   1.363       .  A
C649        N654   1.360       .  A
C649       C1197   1.491       .  S
N650        C651   1.363       .  A
C651        N652   1.360       .  A
C651        C981   1.483       .  S
N652        C653   1.356       .  A
C653        N654   1.358       .  A
C653        C829   1.479       .  S
C655        N656   1.363       .  A
C655        N660   1.357       .  A
C655       C1245   1.480       .  S
N656        C657   1.366       .  A
C657        N658   1.364       .  A
C657       C1029   1.491       .  S
N658        C659   1.357       .  A
C659        N660   1.352       .  A
C659        C813   1.480       .  S
C661        N662   1.361       .  A
C661        N666   1.359       .  A
C661       C1301   1.482       .  S
N662        C663   1.362       .  A
C663        N664   1.361       .  A
C663       C1077   1.481       .  S
N664        C665   1.354       .  A
C665        N666   1.354       .  A
C665        C797   1.475       .  S
C667        N668   1.366       .  A
C667        N672   1.360       .  A
C667       C1381   1.480       .  S
N668        C669   1.367       .  A
C669        N670   1.359       .  A
C669       C1117   1.487       .  S
N670        C671   1.351       .  A
C671        N672   1.352       .  A
C671        C781   1.474       .  S
O673       Zr709   2.444   1_566  S
O673        C684   1.293       .  A
O674       Zr708   2.432   1_566  S
O674        C685   1.291       .  A
O675       Zr681   2.463       .  S
O675        C686   1.296       .  A
O676       Zr681   2.441   1_554  S
O676        C687   1.294       .  A
O677       Zr711   2.446   1_565  S
O677        C687   1.294       .  A
O678       Zr710   2.445       .  S
O678        C686   1.293   1_545  A
O679       Zr681   2.442   1_455  S
O679        C685   1.293       .  A
O680       Zr681   2.434       .  S
O680        C684   1.292       .  A
Zr681       O682   2.346   1_666  S
Zr681       O683   2.333   1_565  S
Zr681       O691   2.356   1_566  S
Zr681       O689   2.335   1_665  S
O682       Zr708   2.332       .  S
O682       Zr711   2.342   1_455  S
O683       Zr709   2.335   1_556  S
O683       Zr710   2.329       .  S
C684       C1925   1.473       .  S
C685       C1829   1.479       .  S
C686       C1677   1.487       .  S
C687       C1581   1.480       .  S
H688        O689   0.965       .  S
O689       Zr708   2.350   1_556  S
O689       Zr710   2.345   1_455  S
H690        O691   0.966   1_565  S
O691       Zr709   2.341       .  S
O691       Zr711   2.349       .  S
O692       Zr708   2.445       .  S
O692        C715   1.294       .  A
O693       Zr709   2.430       .  S
O693        C716   1.291       .  A
O694       Zr710   2.429   1_455  S
O694        C717   1.291       .  A
O695       Zr711   2.436   1_455  S
O695        C718   1.291       .  A
O696       Zr711   2.431       .  S
O696        C719   1.290       .  A
O697       Zr710   2.447       .  S
O697        C720   1.293       .  A
O698       Zr712   2.454   1_556  S
O698        C721   1.295       .  A
O699       Zr712   2.424       .  S
O699        C722   1.290       .  A
O700       Zr710   2.435       .  S
O700        C721   1.292       .  A
O701       Zr711   2.446       .  S
O701        C722   1.294       .  A
O702       Zr708   2.414   1_556  S
O702        C717   1.289       .  A
O703       Zr709   2.437   1_556  S
O703        C720   1.292       .  A
O704       Zr709   2.444       .  S
O704        C719   1.293       .  A
O705       Zr708   2.456       .  S
O705        C718   1.295       .  A
O706       Zr712   2.462   1_455  S
O706        C715   1.297       .  A
O707       Zr712   2.447       .  S
O707        C716   1.294       .  A
Zr708       O714   2.346   1_554  S
Zr708       O726   2.328       .  S
Zr709       O713   2.339       .  S
Zr709       O724   2.348   1_554  S
Zr710       O714   2.349   1_655  S
Zr710       O724   2.337       .  S
Zr711       O713   2.339       .  S
Zr711       O726   2.339   1_655  S
Zr712       O713   2.349       .  S
Zr712       O714   2.333   1_654  S
Zr712       O726   2.346   1_655  S
Zr712       O724   2.350   1_554  S
C715       C1165   1.491       .  S
C716       C1869   1.476       .  S
C717       C1637   1.461       .  S
C718       C1349   1.479       .  S
C719       C1533   1.472       .  S
C720       C1781   1.476       .  S
C721       C1733   1.477       .  S
C722       C1453   1.468       .  S
H723        O724   0.965       .  S
H725        O726   0.965       .  S
O727       Zr763   2.439       .  S
O727        C738   1.293       .  A
O728       Zr762   2.469       .  S
O728        C739   1.298       .  A
O729       Zr735   2.426       .  S
O729        C740   1.290       .  A
O730       Zr735   2.436       .  S
O730        C741   1.291       .  A
O731       Zr765   2.441       .  S
O731        C741   1.292       .  A
O732       Zr764   2.444       .  S
O732        C740   1.292       .  A
O733       Zr735   2.426       .  S
O733        C739   1.291       .  A
O734       Zr735   2.434       .  S
O734        C738   1.291       .  A
Zr735       O736   2.339       .  S
Zr735       O737   2.330       .  S
Zr735       O745   2.337       .  S
Zr735       O743   2.343       .  S
O736       Zr762   2.349       .  S
O736       Zr765   2.332       .  S
O737       Zr763   2.333       .  S
O737       Zr764   2.330       .  S
C738        C965   1.477       .  S
C739        C933   1.484       .  S
C740        C941   1.471       .  S
C741        C909   1.475       .  S
H742        O743   0.966       .  S
O743       Zr762   2.359       .  S
O743       Zr764   2.342       .  S
H744        O745   0.966       .  S
O745       Zr763   2.346       .  S
O745       Zr765   2.339       .  S
O746       Zr762   2.479       .  S
O746        C769   1.300       .  A
O747       Zr763   2.437       .  S
O747        C770   1.293       .  A
O748       Zr764   2.420       .  S
O748        C771   1.290       .  A
O749       Zr765   2.432       .  S
O749        C772   1.291       .  A
O750       Zr765   2.434       .  S
O750        C773   1.292       .  A
O751       Zr764   2.441       .  S
O751        C774   1.293       .  A
O752       Zr766   2.445       .  S
O752        C775   1.294       .  A
O753       Zr766   2.438       .  S
O753        C776   1.292       .  A
O754       Zr764   2.436       .  S
O754        C775   1.292       .  A
O755       Zr765   2.424       .  S
O755        C776   1.290       .  A
O756       Zr762   2.457       .  S
O756        C771   1.297       .  A
O757       Zr763   2.442       .  S
O757        C774   1.293       .  A
O758       Zr763   2.445       .  S
O758        C773   1.293       .  A
O759       Zr762   2.458       .  S
O759        C772   1.297       .  A
O760       Zr766   2.444       .  S
O760        C769   1.293       .  A
O761       Zr766   2.435       .  S
O761        C770   1.292       .  A
Zr762       O768   2.348       .  S
Zr762       O780   2.347       .  S
Zr763       O767   2.332       .  S
Zr763       O778   2.345       .  S
Zr764       O768   2.348       .  S
Zr764       O778   2.343       .  S
Zr765       O767   2.332       .  S
Zr765       O780   2.349       .  S
Zr766       O767   2.337       .  S
Zr766       O768   2.340       .  S
Zr766       O780   2.347       .  S
Zr766       O778   2.345       .  S
C769        C901   1.496       .  S
C770        C869   1.474       .  S
C771        C789   1.479       .  S
C772        C821   1.481       .  S
C773        C837   1.476       .  S
C774        C805   1.479       .  S
C775        C853   1.481       .  S
C776        C885   1.467       .  S
H777        O778   0.965       .  S
H779        O780   0.965       .  S
C781        C782   1.404       .  A
C781        C786   1.405       .  A
C782        C783   1.397       .  A
C782        H791   1.083       .  S
C783        C784   1.403       .  A
C783        H792   1.084       .  S
C784        C790   1.401       .  A
C784        C785   1.413       .  A
C785        C787   1.403       .  A
C785        C786   1.404       .  A
C786        H793   1.084       .  S
C787        C788   1.399       .  A
C787        H794   1.083       .  S
C788        C789   1.404       .  A
C788        H795   1.083       .  S
C789        C790   1.408       .  A
C790        H796   1.085       .  S
C797        C798   1.404       .  A
C797        C802   1.404       .  A
C798        C799   1.400       .  A
C798        H807   1.083       .  S
C799        C800   1.404       .  A
C799        H808   1.084       .  S
C800        C806   1.407       .  A
C800        C801   1.414       .  A
C801        C803   1.401       .  A
C801        C802   1.403       .  A
C802        H809   1.085       .  S
C803        C804   1.396       .  A
C803        H810   1.084       .  S
C804        C805   1.405       .  A
C804        H811   1.083       .  S
C805        C806   1.408       .  A
C806        H812   1.084       .  S
C813        C814   1.404       .  A
C813        C818   1.406       .  A
C814        C815   1.402       .  A
C814        H823   1.083       .  S
C815        C816   1.405       .  A
C815        H824   1.084       .  S
C816        C822   1.408       .  A
C816        C817   1.413       .  A
C817        C819   1.402       .  A
C817        C818   1.404       .  A
C818        H825   1.084       .  S
C819        C820   1.397       .  A
C819        H826   1.084       .  S
C820        C821   1.404       .  A
C820        H827   1.083       .  S
C821        C822   1.410       .  A
C822        H828   1.084       .  S
C829        C830   1.406       .  A
C829        C834   1.404       .  A
C830        C831   1.400       .  A
C830        H839   1.083       .  S
C831        C832   1.403       .  A
C831        H840   1.084       .  S
C832        C838   1.407       .  A
C832        C833   1.415       .  A
C833        C835   1.400       .  A
C833        C834   1.402       .  A
C834        H841   1.084       .  S
C835        C836   1.394       .  A
C835        H842   1.084       .  S
C836        C837   1.404       .  A
C836        H843   1.080       .  S
C837        C838   1.406       .  A
C838        H844   1.084       .  S
C845        C846   1.403       .  A
C845        C850   1.403       .  A
C846        C847   1.398       .  A
C846        H855   1.083       .  S
C847        C848   1.403       .  A
C847        H856   1.084       .  S
C848        C854   1.405       .  A
C848        C849   1.415       .  A
C849        C851   1.402       .  A
C849        C850   1.405       .  A
C850        H857   1.084       .  S
C851        C852   1.398       .  A
C851        H858   1.084       .  S
C852        C853   1.406       .  A
C852        H859   1.083       .  S
C853        C854   1.407       .  A
C854        H860   1.084       .  S
C861        C862   1.404       .  A
C861        C866   1.404       .  A
C862        C863   1.396       .  A
C862        H871   1.083       .  S
C863        C864   1.401       .  A
C863        H872   1.084       .  S
C864        C870   1.402       .  A
C864        C865   1.415       .  A
C865        C867   1.402       .  A
C865        C866   1.404       .  A
C866        H873   1.084       .  S
C867        C868   1.397       .  A
C867        H874   1.084       .  S
C868        C869   1.405       .  A
C868        H875   1.083       .  S
C869        C870   1.404       .  A
C870        H876   1.085       .  S
C877        C878   1.405       .  A
C877        C882   1.402       .  A
C878        C879   1.397       .  A
C878        H887   1.083       .  S
C879        C880   1.401       .  A
C879        H888   1.084       .  S
C880        C886   1.402       .  A
C880        C881   1.416       .  A
C881        C883   1.399       .  A
C881        C882   1.399       .  A
C882        H889   1.085       .  S
C883        C884   1.392       .  A
C883        H890   1.084       .  S
C884        C885   1.403       .  A
C884        H891   1.080       .  S
C885        C886   1.401       .  A
C886        H892   1.084       .  S
C893        C894   1.406       .  A
C893        C898   1.408       .  A
C894        C895   1.404       .  A
C894        H903   1.083       .  S
C895        C896   1.406       .  A
C895        H904   1.084       .  S
C896        C902   1.414       .  A
C896        C897   1.414       .  A
C897        C899   1.404       .  A
C897        C898   1.413       .  A
C898        H905   1.084       .  S
C899        C900   1.402       .  A
C899        H906   1.083       .  S
C900        C901   1.406       .  A
C900        H907   1.083       .  S
C901        C902   1.414       .  A
C902        H908   1.084       .  S
C909        C910   1.404       .  A
C909        C914   1.406       .  A
C910        C911   1.397       .  A
C910        H919   1.083       .  S
C911        C912   1.403       .  A
C911        H920   1.084       .  S
C912        C918   1.402       .  A
C912        C913   1.414       .  A
C913        C915   1.404       .  A
C913        C914   1.404       .  A
C914        H921   1.084       .  S
C915        C916   1.399       .  A
C915        H922   1.083       .  S
C916        C917   1.403       .  A
C916        H923   1.083       .  S
C917        C918   1.407       .  A
C918        H924   1.085       .  S
C925        C926   1.404       .  A
C925        C930   1.408       .  A
C926        C927   1.395       .  A
C926        H935   1.083       .  S
C927        C928   1.401       .  A
C927        H936   1.084       .  S
C928        C934   1.402       .  A
C928        C929   1.413       .  A
C929        C931   1.406       .  A
C929        C930   1.410       .  A
C930        H937   1.084       .  S
C931        C932   1.404       .  A
C931        H938   1.083       .  S
C932        C933   1.405       .  A
C932        H939   1.083       .  S
C933        C934   1.407       .  A
C934        H940   1.085       .  S
C941        C942   1.404       .  A
C941        C946   1.404       .  A
C942        C943   1.394       .  A
C942        H951   1.082       .  S
C943        C944   1.401       .  A
C943        H952   1.084       .  S
C944        C950   1.400       .  A
C944        C945   1.415       .  A
C945        C947   1.403       .  A
C945        C946   1.405       .  A
C946        H953   1.084       .  S
C947        C948   1.399       .  A
C947        H954   1.084       .  S
C948        C949   1.404       .  A
C948        H955   1.083       .  S
C949        C950   1.404       .  A
C950        H956   1.085       .  S
C957        C958   1.402       .  A
C957        C962   1.403       .  A
C958        C959   1.402       .  A
C958        H967   1.083       .  S
C959        C960   1.406       .  A
C959        H968   1.084       .  S
C960        C966   1.405       .  A
C960        C961   1.413       .  A
C961        C963   1.401       .  A
C961        C962   1.398       .  A
C962        H969   1.085       .  S
C963        C964   1.394       .  A
C963        H970   1.084       .  S
C964        C965   1.404       .  A
C964        H971   1.083       .  S
C965        C966   1.409       .  A
C966        H972   1.083       .  S
C973        C974   1.404       .  A
C973        C978   1.404       .  A
C974        C975   1.396       .  A
C974        H983   1.084       .  S
C975        C976   1.402       .  A
C975        H984   1.084       .  S
C976        C982   1.403       .  A
C976        C977   1.415       .  A
C977        C979   1.403       .  A
C977        C978   1.407       .  A
C978        H985   1.084       .  S
C979        C980   1.400       .  A
C979        H986   1.083       .  S
C980        C981   1.406       .  A
C980        H987   1.083       .  S
C981        C982   1.407       .  A
C982        H988   1.084       .  S
C989        C990   1.406       .  A
C989        C994   1.406       .  A
C990        C991   1.405       .  A
C990        H999   1.083       .  S
C991        C992   1.406       .  A
C991       H1000   1.083       .  S
C992        C998   1.413       .  A
C992        C993   1.414       .  A
C993        C995   1.400       .  A
C993        C994   1.403       .  A
C994       H1001   1.084       .  S
C995        C996   1.394       .  A
C995       H1002   1.084       .  S
C996        C997   1.403       .  A
C996       H1003   1.084       .  S
C997        C998   1.409       .  A
C998       H1004   1.084       .  S
C1005      C1006   1.409       .  A
C1005      C1010   1.401       .  A
C1006      C1007   1.400       .  A
C1006      H1015   1.083       .  S
C1007      C1008   1.402       .  A
C1007      H1016   1.084       .  S
C1008      C1014   1.408       .  A
C1008      C1009   1.415       .  A
C1009      C1011   1.395       .  A
C1009      C1010   1.397       .  A
C1010      H1017   1.084       .  S
C1011      C1012   1.388       .  A
C1011      H1018   1.084       .  S
C1012      C1013   1.408       .  A
C1012      H1019   1.083       .  S
C1013      C1014   1.406       .  A
C1014      H1020   1.084       .  S
C1021      C1022   1.408       .  A
C1021      C1026   1.409       .  A
C1022      C1023   1.389       .  A
C1022      H1031   1.084       .  S
C1023      C1024   1.396       .  A
C1023      H1032   1.084       .  S
C1024      C1030   1.401       .  A
C1024      C1025   1.415       .  A
C1025      C1027   1.405       .  A
C1025      C1026   1.415       .  A
C1026      H1033   1.084       .  S
C1027      C1028   1.405       .  A
C1027      H1034   1.083       .  S
C1028      C1029   1.409       .  A
C1028      H1035   1.083       .  S
C1029      C1030   1.406       .  A
C1030      H1036   1.084       .  S
C1037      C1038   1.403       .  A
C1037      C1042   1.411       .  A
C1038      C1039   1.392       .  A
C1038      H1047   1.084       .  S
C1039      C1040   1.399       .  A
C1039      H1048   1.084       .  S
C1040      C1046   1.401       .  A
C1040      C1041   1.414       .  A
C1041      C1043   1.408       .  A
C1041      C1042   1.415       .  A
C1042      H1049   1.084       .  S
C1043      C1044   1.407       .  A
C1043      H1050   1.083       .  S
C1044      C1045   1.406       .  A
C1044      H1051   1.083       .  S
C1045      C1046   1.406       .  A
C1046      H1052   1.085       .  S
C1053      C1054   1.407       .  A
C1053      C1058   1.404       .  A
C1054      C1055   1.403       .  A
C1054      H1063   1.083       .  S
C1055      C1056   1.404       .  A
C1055      H1064   1.083       .  S
C1056      C1062   1.412       .  A
C1056      C1057   1.415       .  A
C1057      C1059   1.396       .  A
C1057      C1058   1.402       .  A
C1058      H1065   1.085       .  S
C1059      C1060   1.391       .  A
C1059      H1066   1.084       .  S
C1060      C1061   1.409       .  A
C1060      H1067   1.083       .  S
C1061      C1062   1.409       .  A
C1062      H1068   1.084       .  S
C1069      C1070   1.405       .  A
C1069      C1074   1.406       .  A
C1070      C1071   1.391       .  A
C1070      H1079   1.084       .  S
C1071      C1072   1.399       .  A
C1071      H1080   1.084       .  S
C1072      C1078   1.398       .  A
C1072      C1073   1.414       .  A
C1073      C1075   1.404       .  A
C1073      C1074   1.407       .  A
C1074      H1081   1.084       .  S
C1075      C1076   1.401       .  A
C1075      H1082   1.084       .  S
C1076      C1077   1.407       .  A
C1076      H1083   1.083       .  S
C1077      C1078   1.404       .  A
C1078      H1084   1.084       .  S
C1085      C1086   1.405       .  A
C1085      C1090   1.406       .  A
C1086      C1087   1.393       .  A
C1086      H1095   1.084       .  S
C1087      C1088   1.400       .  A
C1087      H1096   1.084       .  S
C1088      C1094   1.401       .  A
C1088      C1089   1.414       .  A
C1089      C1091   1.405       .  A
C1089      C1090   1.409       .  A
C1090      H1097   1.084       .  S
C1091      C1092   1.402       .  A
C1091      H1098   1.083       .  S
C1092      C1093   1.406       .  A
C1092      H1099   1.083       .  S
C1093      C1094   1.405       .  A
C1094      H1100   1.084       .  S
C1101      C1102   1.407       .  A
C1101      C1106   1.409       .  A
C1102      C1103   1.389       .  A
C1102      H1111   1.083       .  S
C1103      C1104   1.397       .  A
C1103      H1112   1.084       .  S
C1104      C1110   1.397       .  A
C1104      C1105   1.413       .  A
C1105      C1107   1.406       .  A
C1105      C1106   1.411       .  A
C1106      H1113   1.084       .  S
C1107      C1108   1.405       .  A
C1107      H1114   1.083       .  S
C1108      C1109   1.406       .  A
C1108      H1115   1.083       .  S
C1109      C1110   1.406       .  A
C1110      H1116   1.085       .  S
C1117      C1118   1.409       .  A
C1117      C1122   1.410       .  A
C1118      C1119   1.389       .  A
C1118      H1127   1.083       .  S
C1119      C1120   1.395       .  A
C1119      H1128   1.084       .  S
C1120      C1126   1.397       .  A
C1120      C1121   1.415       .  A
C1121      C1123   1.406       .  A
C1121      C1122   1.411       .  A
C1122      H1129   1.084       .  S
C1123      C1124   1.403       .  A
C1123      H1130   1.083       .  S
C1124      C1125   1.405       .  A
C1124      H1131   1.083       .  S
C1125      C1126   1.399       .  A
C1126      H1132   1.084       .  S
C1133      C1134   1.407       .  A
C1133      C1138   1.409       .  A
C1134      C1135   1.389       .  A
C1134      H1143   1.083       .  S
C1135      C1136   1.397       .  A
C1135      H1144   1.084       .  S
C1136      C1142   1.398       .  A
C1136      C1137   1.414       .  A
C1137      C1139   1.405       .  A
C1137      C1138   1.411       .  A
C1138      H1145   1.084       .  S
C1139      C1140   1.404       .  A
C1139      H1146   1.083       .  S
C1140      C1141   1.407       .  A
C1140      H1147   1.083       .  S
C1141      C1142   1.405       .  A
C1142      H1148   1.084       .  S
C1149      C1150   1.406       .  A
C1149      C1154   1.403       .  A
C1150      C1151   1.405       .  A
C1150      H1159   1.083       .  S
C1151      C1152   1.406       .  A
C1151      H1160   1.083       .  S
C1152      C1158   1.414       .  A
C1152      C1153   1.414       .  A
C1153      C1155   1.397       .  A
C1153      C1154   1.402       .  A
C1154      H1161   1.085       .  S
C1155      C1156   1.392       .  A
C1155      H1162   1.084       .  S
C1156      C1157   1.409       .  A
C1156      H1163   1.083       .  S
C1157      C1158   1.411       .  A
C1158      H1164   1.084       .  S
C1165      C1166   1.407       .  A
C1165      C1170   1.408   1_554  A
C1166      C1167   1.404       .  A
C1166      H1175   1.083       .  S
C1167      C1168   1.405       .  A
C1167      H1176   1.083       .  S
C1168      C1174   1.414       .  A
C1168      C1169   1.415   1_554  A
C1169      C1171   1.402       .  A
C1169      C1170   1.408       .  A
C1170      H1177   1.084       .  S
C1171      C1172   1.398       .  A
C1171      H1178   1.084       .  S
C1172      C1173   1.404   1_556  A
C1172      H1179   1.083       .  S
C1173      C1174   1.409       .  A
C1174      H1180   1.084       .  S
C1181      C1182   1.406       .  A
C1181      C1186   1.410       .  A
C1182      C1183   1.388       .  A
C1182      H1191   1.084       .  S
C1183      C1184   1.396       .  A
C1183      H1192   1.084       .  S
C1184      C1190   1.399       .  A
C1184      C1185   1.415       .  A
C1185      C1187   1.407       .  A
C1185      C1186   1.415       .  A
C1186      H1193   1.084       .  S
C1187      C1188   1.407       .  A
C1187      H1194   1.083       .  S
C1188      C1189   1.408       .  A
C1188      H1195   1.083       .  S
C1189      C1190   1.404       .  A
C1190      H1196   1.084       .  S
C1197      C1198   1.408       .  A
C1197      C1202   1.408       .  A
C1198      C1199   1.404       .  A
C1198      H1207   1.083       .  S
C1199      C1200   1.405       .  A
C1199      H1208   1.083       .  S
C1200      C1206   1.413       .  A
C1200      C1201   1.413       .  A
C1201      C1203   1.399       .  A
C1201      C1202   1.404       .  A
C1202      H1209   1.084       .  S
C1203      C1204   1.394       .  A
C1203      H1210   1.084       .  S
C1204      C1205   1.410       .  A
C1204      H1211   1.083       .  S
C1205      C1206   1.412       .  A
C1206      H1212   1.084       .  S
C1213      C1214   1.408       .  A
C1213      C1218   1.407       .  A
C1214      C1215   1.404       .  A
C1214      H1223   1.083       .  S
C1215      C1216   1.405       .  A
C1215      H1224   1.083       .  S
C1216      C1222   1.414       .  A
C1216      C1217   1.415       .  A
C1217      C1219   1.399       .  A
C1217      C1218   1.404       .  A
C1218      H1225   1.084       .  S
C1219      C1220   1.393       .  A
C1219      H1226   1.084       .  S
C1220      C1221   1.405       .  A
C1220      H1227   1.084       .  S
C1221      C1222   1.409       .  A
C1222      H1228   1.084       .  S
C1229      C1230   1.406       .  A
C1229      C1234   1.406       .  A
C1230      C1231   1.393       .  A
C1230      H1239   1.084       .  S
C1231      C1232   1.399       .  A
C1231      H1240   1.084       .  S
C1232      C1238   1.401       .  A
C1232      C1233   1.416       .  A
C1233      C1235   1.404       .  A
C1233      C1234   1.408       .  A
C1234      H1241   1.084       .  S
C1235      C1236   1.401       .  A
C1235      H1242   1.083       .  S
C1236      C1237   1.404       .  A
C1236      H1243   1.083       .  S
C1237      C1238   1.401       .  A
C1238      H1244   1.085       .  S
C1245      C1246   1.405       .  A
C1245      C1250   1.410       .  A
C1246      C1247   1.390       .  A
C1246      H1255   1.084       .  S
C1247      C1248   1.398       .  A
C1247      H1256   1.084       .  S
C1248      C1254   1.398       .  A
C1248      C1249   1.413       .  A
C1249      C1251   1.407       .  A
C1249      C1250   1.414       .  A
C1250      H1257   1.084       .  S
C1251      C1252   1.407       .  A
C1251      H1258   1.083       .  S
C1252      C1253   1.408       .  A
C1252      H1259   1.083       .  S
C1253      C1254   1.406       .  A
C1254      H1260   1.084       .  S
C1261      C1262   1.406       .  A
C1261      C1266   1.408       .  A
C1262      C1263   1.403       .  A
C1262      H1271   1.083       .  S
C1263      C1264   1.406       .  A
C1263      H1272   1.083       .  S
C1264      C1270   1.407       .  A
C1264      C1265   1.411       .  A
C1265      C1267   1.400       .  A
C1265      C1266   1.398       .  A
C1266      H1273   1.084       .  S
C1267      C1268   1.393       .  A
C1267      H1274   1.084       .  S
C1268      C1269   1.407       .  A
C1268      H1275   1.083       .  S
C1269      C1270   1.411       .  A
C1270      H1276   1.084       .  S
C1277      C1278   1.409       .  A
C1277      C1282   1.408       .  A
C1278      C1279   1.402       .  A
C1278      H1287   1.083       .  S
C1279      C1280   1.403       .  A
C1279      H1288   1.083       .  S
C1280      C1286   1.414       .  A
C1280      C1281   1.416       .  A
C1281      C1283   1.401       .  A
C1281      C1282   1.411       .  A
C1282      H1289   1.084       .  S
C1283      C1284   1.398       .  A
C1283      H1290   1.084       .  S
C1284      C1285   1.407       .  A
C1284      H1291   1.084       .  S
C1285      C1286   1.406       .  A
C1286      H1292   1.084       .  S
C1293      C1294   1.408       .  A
C1293      C1298   1.409       .  A
C1294      C1295   1.389       .  A
C1294      H1303   1.083       .  S
C1295      C1296   1.396       .  A
C1295      H1304   1.084       .  S
C1296      C1302   1.397       .  A
C1296      C1297   1.414       .  A
C1297      C1299   1.405       .  A
C1297      C1298   1.410       .  A
C1298      H1305   1.084       .  S
C1299      C1300   1.403       .  A
C1299      H1306   1.083       .  S
C1300      C1301   1.407       .  A
C1300      H1307   1.083       .  S
C1301      C1302   1.403       .  A
C1302      H1308   1.084       .  S
C1309      C1310   1.404       .  A
C1309      C1314   1.410       .  A
C1310      C1311   1.390       .  A
C1310      H1319   1.084       .  S
C1311      C1312   1.398       .  A
C1311      H1320   1.084       .  S
C1312      C1318   1.397       .  A
C1312      C1313   1.414       .  A
C1313      C1315   1.407       .  A
C1313      C1314   1.413       .  A
C1314      H1321   1.084       .  S
C1315      C1316   1.406       .  A
C1315      H1322   1.083       .  S
C1316      C1317   1.407       .  A
C1316      H1323   1.083       .  S
C1317      C1318   1.402       .  A
C1318      H1324   1.084       .  S
C1325      C1326   1.404       .  A
C1325      C1330   1.409       .  A
C1326      C1327   1.392       .  A
C1326      H1335   1.084       .  S
C1327      C1328   1.400       .  A
C1327      H1336   1.084       .  S
C1328      C1334   1.399       .  A
C1328      C1329   1.413       .  A
C1329      C1331   1.407       .  A
C1329      C1330   1.412       .  A
C1330      H1337   1.084       .  S
C1331      C1332   1.406       .  A
C1331      H1338   1.083       .  S
C1332      C1333   1.406       .  A
C1332      H1339   1.083       .  S
C1333      C1334   1.408       .  A
C1334      H1340   1.084       .  S
C1341      C1342   1.404       .  A
C1341      C1346   1.406       .  A
C1342      C1343   1.401   1_545  A
C1342      H1351   1.083   1_545  S
C1343      C1344   1.405   1_565  A
C1343      H1352   1.083       .  S
C1344      C1350   1.408       .  A
C1344      C1345   1.414       .  A
C1345      C1347   1.402       .  A
C1345      C1346   1.403       .  A
C1346      H1353   1.085       .  S
C1347      C1348   1.397       .  A
C1347      H1354   1.084       .  S
C1348      C1349   1.405       .  A
C1348      H1355   1.083       .  S
C1349      C1350   1.407       .  A
C1350      H1356   1.084       .  S
C1357      C1358   1.407       .  A
C1357      C1362   1.407       .  A
C1358      C1359   1.407       .  A
C1358      H1367   1.083       .  S
C1359      C1360   1.407       .  A
C1359      H1368   1.083       .  S
C1360      C1366   1.415       .  A
C1360      C1361   1.414       .  A
C1361      C1363   1.400       .  A
C1361      C1362   1.403       .  A
C1362      H1369   1.084       .  S
C1363      C1364   1.394       .  A
C1363      H1370   1.084       .  S
C1364      C1365   1.405       .  A
C1364      H1371   1.084       .  S
C1365      C1366   1.411       .  A
C1366      H1372   1.084       .  S
C1373      C1374   1.408       .  A
C1373      C1378   1.406       .  A
C1374      C1375   1.406       .  A
C1374      H1383   1.083       .  S
C1375      C1376   1.406       .  A
C1375      H1384   1.083       .  S
C1376      C1382   1.414       .  A
C1376      C1377   1.414       .  A
C1377      C1379   1.399       .  A
C1377      C1378   1.402       .  A
C1378      H1385   1.084       .  S
C1379      C1380   1.392       .  A
C1379      H1386   1.084       .  S
C1380      C1381   1.405       .  A
C1380      H1387   1.084       .  S
C1381      C1382   1.410       .  A
C1382      H1388   1.084       .  S
C1389      C1390   1.408       .  A
C1389      C1394   1.408       .  A
C1390      C1391   1.402       .  A
C1390      H1399   1.083       .  S
C1391      C1392   1.403       .  A
C1391      H1400   1.083       .  S
C1392      C1398   1.413       .  A
C1392      C1393   1.415       .  A
C1393      C1395   1.402       .  A
C1393      C1394   1.408       .  A
C1394      H1401   1.084       .  S
C1395      C1396   1.398       .  A
C1395      H1402   1.084       .  S
C1396      C1397   1.406       .  A
C1396      H1403   1.084       .  S
C1397      C1398   1.407       .  A
C1398      H1404   1.084       .  S
C1405      C1406   1.405       .  A
C1405      C1410   1.403       .  A
C1406      C1407   1.402       .  A
C1406      H1415   1.083       .  S
C1407      C1408   1.405       .  A
C1407      H1416   1.083       .  S
C1408      C1414   1.406       .  A
C1408      C1409   1.414       .  A
C1409      C1411   1.398       .  A
C1409      C1410   1.396       .  A
C1410      H1417   1.085       .  S
C1411      C1412   1.390       .  A
C1411      H1418   1.084       .  S
C1412      C1413   1.405       .  A
C1412      H1419   1.083       .  S
C1413      C1414   1.407       .  A
C1414      H1420   1.084       .  S
C1421      C1422   1.408       .  A
C1421      C1426   1.405       .  A
C1422      C1423   1.405       .  A
C1422      H1431   1.083       .  S
C1423      C1424   1.405       .  A
C1423      H1432   1.083       .  S
C1424      C1430   1.418       .  A
C1424      C1425   1.416       .  A
C1425      C1427   1.398       .  A
C1425      C1426   1.406       .  A
C1426      H1433   1.084       .  S
C1427      C1428   1.394       .  A
C1427      H1434   1.084       .  S
C1428      C1429   1.409       .  A
C1428      H1435   1.084       .  S
C1429      C1430   1.410       .  A
C1430      H1436   1.084       .  S
C1437      C1438   1.409       .  A
C1437      C1442   1.408       .  A
C1438      C1439   1.392       .  A
C1438      H1447   1.083       .  S
C1439      C1440   1.397       .  A
C1439      H1448   1.084       .  S
C1440      C1446   1.402       .  A
C1440      C1441   1.415       .  A
C1441      C1443   1.404       .  A
C1441      C1442   1.412       .  A
C1442      H1449   1.084       .  S
C1443      C1444   1.402       .  A
C1443      H1450   1.083       .  S
C1444      C1445   1.407       .  A
C1444      H1451   1.083       .  S
C1445      C1446   1.403       .  A
C1446      H1452   1.085       .  S
C1453      C1454   1.404   1_655  A
C1453      C1458   1.401       .  A
C1454      C1455   1.396       .  A
C1454      H1463   1.084       .  S
C1455      C1456   1.402   1_455  A
C1455      H1464   1.084       .  S
C1456      C1462   1.404       .  A
C1456      C1457   1.416       .  A
C1457      C1459   1.399       .  A
C1457      C1458   1.402       .  A
C1458      H1465   1.085       .  S
C1459      C1460   1.395       .  A
C1459      H1466   1.084       .  S
C1460      C1461   1.407       .  A
C1460      H1467   1.083       .  S
C1461      C1462   1.405       .  A
C1462      H1468   1.084   1_655  S
C1469      C1470   1.405       .  A
C1469      C1474   1.401       .  A
C1470      C1471   1.404       .  A
C1470      H1479   1.083       .  S
C1471      C1472   1.405       .  A
C1471      H1480   1.083       .  S
C1472      C1478   1.414       .  A
C1472      C1473   1.416       .  A
C1473      C1475   1.397       .  A
C1473      C1474   1.405       .  A
C1474      H1481   1.085       .  S
C1475      C1476   1.392       .  A
C1475      H1482   1.084       .  S
C1476      C1477   1.409       .  A
C1476      H1483   1.084       .  S
C1477      C1478   1.409       .  A
C1478      H1484   1.084       .  S
C1485      C1486   1.407       .  A
C1485      C1490   1.410       .  A
C1486      C1487   1.394       .  A
C1486      H1495   1.083       .  S
C1487      C1488   1.399       .  A
C1487      H1496   1.084       .  S
C1488      C1494   1.403       .  A
C1488      C1489   1.414       .  A
C1489      C1491   1.406       .  A
C1489      C1490   1.415       .  A
C1490      H1497   1.084       .  S
C1491      C1492   1.406       .  A
C1491      H1498   1.083       .  S
C1492      C1493   1.408       .  A
C1492      H1499   1.083       .  S
C1493      C1494   1.408       .  A
C1494      H1500   1.084       .  S
C1501      C1502   1.405       .  A
C1501      C1506   1.407       .  A
C1502      C1503   1.393       .  A
C1502      H1511   1.084       .  S
C1503      C1504   1.399       .  A
C1503      H1512   1.084       .  S
C1504      C1510   1.403       .  A
C1504      C1505   1.416       .  A
C1505      C1507   1.404       .  A
C1505      C1506   1.413       .  A
C1506      H1513   1.084       .  S
C1507      C1508   1.403       .  A
C1507      H1514   1.083       .  S
C1508      C1509   1.408       .  A
C1508      H1515   1.083   1_565  S
C1509      C1510   1.405       .  A
C1510      H1516   1.084       .  S
C1517      C1518   1.407       .  A
C1517      C1522   1.410       .  A
C1518      C1519   1.396       .  A
C1518      H1527   1.083       .  S
C1519      C1520   1.401       .  A
C1519      H1528   1.084       .  S
C1520      C1526   1.402       .  A
C1520      C1521   1.412       .  A
C1521      C1523   1.404       .  A
C1521      C1522   1.407       .  A
C1522      H1529   1.084       .  S
C1523      C1524   1.400       .  A
C1523      H1530   1.084       .  S
C1524      C1525   1.407       .  A
C1524      H1531   1.083       .  S
C1525      C1526   1.408       .  A
C1526      H1532   1.084       .  S
C1533      C1534   1.404       .  A
C1533      C1538   1.403       .  A
C1534      C1535   1.398       .  A
C1534      H1543   1.083       .  S
C1535      C1536   1.404       .  A
C1535      H1544   1.084       .  S
C1536      C1542   1.404       .  A
C1536      C1537   1.414       .  A
C1537      C1539   1.402       .  A
C1537      C1538   1.404       .  A
C1538      H1545   1.085       .  S
C1539      C1540   1.398       .  A
C1539      H1546   1.084   1_545  S
C1540      C1541   1.404       .  A
C1540      H1547   1.083   1_545  S
C1541      C1542   1.407       .  A
C1542      H1548   1.084       .  S
C1549      C1550   1.410       .  A
C1549      C1554   1.413       .  A
C1550      C1551   1.389       .  A
C1550      H1559   1.083       .  S
C1551      C1552   1.396       .  A
C1551      H1560   1.084       .  S
C1552      C1558   1.398       .  A
C1552      C1553   1.412       .  A
C1553      C1555   1.407       .  A
C1553      C1554   1.415       .  A
C1554      H1561   1.083       .  S
C1555      C1556   1.407       .  A
C1555      H1562   1.083       .  S
C1556      C1557   1.407       .  A
C1556      H1563   1.083       .  S
C1557      C1558   1.407       .  A
C1558      H1564   1.084       .  S
C1565      C1566   1.406       .  A
C1565      C1570   1.408       .  A
C1566      C1567   1.404       .  A
C1566      H1575   1.083       .  S
C1567      C1568   1.405       .  A
C1567      H1576   1.083       .  S
C1568      C1574   1.414       .  A
C1568      C1569   1.415       .  A
C1569      C1571   1.401       .  A
C1569      C1570   1.405       .  A
C1570      H1577   1.084       .  S
C1571      C1572   1.396       .  A
C1571      H1578   1.084       .  S
C1572      C1573   1.406       .  A
C1572      H1579   1.084       .  S
C1573      C1574   1.407       .  A
C1574      H1580   1.084       .  S
C1581      C1582   1.406       .  A
C1581      C1586   1.407       .  A
C1582      C1583   1.398   1_655  A
C1582      H1591   1.083   1_655  S
C1583      C1584   1.403   1_455  A
C1583      H1592   1.084       .  S
C1584      C1590   1.404       .  A
C1584      C1585   1.414       .  A
C1585      C1587   1.404       .  A
C1585      C1586   1.404       .  A
C1586      H1593   1.084       .  S
C1587      C1588   1.398       .  A
C1587      H1594   1.083       .  S
C1588      C1589   1.401       .  A
C1588      H1595   1.083       .  S
C1589      C1590   1.406       .  A
C1590      H1596   1.085   1_655  S
C1597      C1598   1.405       .  A
C1597      C1602   1.400       .  A
C1598      C1599   1.397       .  A
C1598      H1607   1.083       .  S
C1599      C1600   1.401       .  A
C1599      H1608   1.084       .  S
C1600      C1606   1.404       .  A
C1600      C1601   1.416       .  A
C1601      C1603   1.397       .  A
C1601      C1602   1.398       .  A
C1602      H1609   1.084       .  S
C1603      C1604   1.391       .  A
C1603      H1610   1.084       .  S
C1604      C1605   1.407       .  A
C1604      H1611   1.083       .  S
C1605      C1606   1.404       .  A
C1606      H1612   1.084       .  S
C1613      C1614   1.403       .  A
C1613      C1618   1.399       .  A
C1614      C1615   1.394       .  A
C1614      H1623   1.084       .  S
C1615      C1616   1.400       .  A
C1615      H1624   1.084       .  S
C1616      C1622   1.400       .  A
C1616      C1617   1.417       .  A
C1617      C1619   1.400       .  A
C1617      C1618   1.401       .  A
C1618      H1625   1.085       .  S
C1619      C1620   1.394       .  A
C1619      H1626   1.084       .  S
C1620      C1621   1.403       .  A
C1620      H1627   1.083       .  S
C1621      C1622   1.399       .  A
C1622      H1628   1.085       .  S
C1629      C1630   1.403       .  A
C1629      C1634   1.402       .  A
C1630      C1631   1.390       .  A
C1630      H1639   1.083       .  S
C1631      C1632   1.399       .  A
C1631      H1640   1.084       .  S
C1632      C1638   1.392       .  A
C1632      C1633   1.414       .  A
C1633      C1635   1.402       .  A
C1633      C1634   1.397       .  A
C1634      H1641   1.085       .  S
C1635      C1636   1.395       .  A
C1635      H1642   1.084       .  S
C1636      C1637   1.403       .  A
C1636      H1643   1.083       .  S
C1637      C1638   1.401       .  A
C1638      H1644   1.085       .  S
C1645      C1646   1.408       .  A
C1645      C1650   1.404       .  A
C1646      C1647   1.401       .  A
C1646      H1655   1.083       .  S
C1647      C1648   1.403       .  A
C1647      H1656   1.083       .  S
C1648      C1654   1.411       .  A
C1648      C1649   1.415       .  A
C1649      C1651   1.398       .  A
C1649      C1650   1.404       .  A
C1650      H1657   1.084       .  S
C1651      C1652   1.393       .  A
C1651      H1658   1.084       .  S
C1652      C1653   1.410       .  A
C1652      H1659   1.083       .  S
C1653      C1654   1.408       .  A
C1654      H1660   1.084       .  S
C1661      C1662   1.405       .  A
C1661      C1666   1.407       .  A
C1662      C1663   1.394       .  A
C1662      H1671   1.084       .  S
C1663      C1664   1.399       .  A
C1663      H1672   1.084       .  S
C1664      C1670   1.404       .  A
C1664      C1665   1.416       .  A
C1665      C1667   1.404       .  A
C1665      C1666   1.412       .  A
C1666      H1673   1.084       .  S
C1667      C1668   1.403       .  A
C1667      H1674   1.083       .  S
C1668      C1669   1.406       .  A
C1668      H1675   1.083       .  S
C1669      C1670   1.403       .  A
C1670      H1676   1.084       .  S
C1677      C1678   1.406       .  A
C1677      C1682   1.408       .  A
C1678      C1679   1.400       .  A
C1678      H1687   1.083       .  S
C1679      C1680   1.403       .  A
C1679      H1688   1.084       .  S
C1680      C1686   1.410       .  A
C1680      C1681   1.415       .  A
C1681      C1683   1.404   1_655  A
C1681      C1682   1.412       .  A
C1682      H1689   1.084   1_655  S
C1683      C1684   1.402       .  A
C1683      H1690   1.083       .  S
C1684      C1685   1.406   1_455  A
C1684      H1691   1.083       .  S
C1685      C1686   1.407       .  A
C1686      H1692   1.084       .  S
C1693      C1694   1.407       .  A
C1693      C1698   1.407       .  A
C1694      C1695   1.407       .  A
C1694      H1703   1.083       .  S
C1695      C1696   1.407       .  A
C1695      H1704   1.083       .  S
C1696      C1702   1.418       .  A
C1696      C1697   1.414       .  A
C1697      C1699   1.398       .  A
C1697      C1698   1.403       .  A
C1698      H1705   1.085       .  S
C1699      C1700   1.392       .  A
C1699      H1706   1.084       .  S
C1700      C1701   1.407       .  A
C1700      H1707   1.084       .  S
C1701      C1702   1.412       .  A
C1702      H1708   1.084       .  S
C1709      C1710   1.405       .  A
C1709      C1714   1.411       .  A
C1710      C1711   1.392       .  A
C1710      H1719   1.084       .  S
C1711      C1712   1.399       .  A
C1711      H1720   1.084       .  S
C1712      C1718   1.401       .  A
C1712      C1713   1.414       .  A
C1713      C1715   1.408       .  A
C1713      C1714   1.414       .  A
C1714      H1721   1.084       .  S
C1715      C1716   1.407       .  A
C1715      H1722   1.083       .  S
C1716      C1717   1.407       .  A
C1716      H1723   1.083       .  S
C1717      C1718   1.406       .  A
C1718      H1724   1.084       .  S
C1725      C1726   1.406       .  A
C1725      C1730   1.409       .  A
C1726      C1727   1.398       .  A
C1726      H1735   1.083       .  S
C1727      C1728   1.402       .  A
C1727      H1736   1.084       .  S
C1728      C1734   1.404       .  A
C1728      C1729   1.414       .  A
C1729      C1731   1.405   1_655  A
C1729      C1730   1.408       .  A
C1730      H1737   1.084   1_655  S
C1731      C1732   1.401   1_455  A
C1731      H1738   1.083       .  S
C1732      C1733   1.404       .  A
C1732      H1739   1.083   1_655  S
C1733      C1734   1.406       .  A
C1734      H1740   1.085       .  S
C1741      C1742   1.407       .  A
C1741      C1746   1.406       .  A
C1742      C1743   1.404       .  A
C1742      H1751   1.083   1_565  S
C1743      C1744   1.405       .  A
C1743      H1752   1.083       .  S
C1744      C1750   1.411       .  A
C1744      C1745   1.415       .  A
C1745      C1747   1.400       .  A
C1745      C1746   1.402       .  A
C1746      H1753   1.084       .  S
C1747      C1748   1.392       .  A
C1747      H1754   1.084       .  S
C1748      C1749   1.403       .  A
C1748      H1755   1.084       .  S
C1749      C1750   1.407       .  A
C1750      H1756   1.084       .  S
C1757      C1758   1.409       .  A
C1757      C1762   1.404       .  A
C1758      C1759   1.404       .  A
C1758      H1767   1.083       .  S
C1759      C1760   1.404       .  A
C1759      H1768   1.083       .  S
C1760      C1766   1.415       .  A
C1760      C1761   1.415       .  A
C1761      C1763   1.396       .  A
C1761      C1762   1.402       .  A
C1762      H1769   1.085       .  S
C1763      C1764   1.390       .  A
C1763      H1770   1.084       .  S
C1764      C1765   1.409       .  A
C1764      H1771   1.083       .  S
C1765      C1766   1.410       .  A
C1766      H1772   1.084       .  S
C1773      C1774   1.405       .  A
C1773      C1778   1.407       .  A
C1774      C1775   1.402       .  A
C1774      H1783   1.083   1_545  S
C1775      C1776   1.405       .  A
C1775      H1784   1.084   1_545  S
C1776      C1782   1.407       .  A
C1776      C1777   1.413       .  A
C1777      C1779   1.403       .  A
C1777      C1778   1.402       .  A
C1778      H1785   1.084       .  S
C1779      C1780   1.396       .  A
C1779      H1786   1.084       .  S
C1780      C1781   1.403       .  A
C1780      H1787   1.084       .  S
C1781      C1782   1.407       .  A
C1782      H1788   1.083       .  S
C1789      C1790   1.409       .  A
C1789      C1794   1.407       .  A
C1790      C1791   1.392       .  A
C1790      H1799   1.083       .  S
C1791      C1792   1.398       .  A
C1791      H1800   1.084       .  S
C1792      C1798   1.400       .  A
C1792      C1793   1.414       .  A
C1793      C1795   1.402       .  A
C1793      C1794   1.407       .  A
C1794      H1801   1.084       .  S
C1795      C1796   1.399       .  A
C1795      H1802   1.084       .  S
C1796      C1797   1.407       .  A
C1796      H1803   1.083       .  S
C1797      C1798   1.404       .  A
C1798      H1804   1.085       .  S
C1805      C1806   1.405       .  A
C1805      C1810   1.405       .  A
C1806      C1807   1.400       .  A
C1806      H1815   1.083       .  S
C1807      C1808   1.404       .  A
C1807      H1816   1.083       .  S
C1808      C1814   1.407       .  A
C1808      C1809   1.415       .  A
C1809      C1811   1.401       .  A
C1809      C1810   1.401       .  A
C1810      H1817   1.085       .  S
C1811      C1812   1.394       .  A
C1811      H1818   1.084       .  S
C1812      C1813   1.405       .  A
C1812      H1819   1.083       .  S
C1813      C1814   1.404       .  A
C1814      H1820   1.084       .  S
C1821      C1822   1.402   1_556  A
C1821      C1826   1.401       .  A
C1822      C1823   1.395       .  A
C1822      H1831   1.083       .  S
C1823      C1824   1.401   1_554  A
C1823      H1832   1.084       .  S
C1824      C1830   1.402       .  A
C1824      C1825   1.415       .  A
C1825      C1827   1.401       .  A
C1825      C1826   1.403       .  A
C1826      H1833   1.085       .  S
C1827      C1828   1.396       .  A
C1827      H1834   1.084       .  S
C1828      C1829   1.407       .  A
C1828      H1835   1.083       .  S
C1829      C1830   1.405       .  A
C1830      H1836   1.084   1_556  S
C1837      C1838   1.410       .  A
C1837      C1842   1.410       .  A
C1838      C1839   1.407       .  A
C1838      H1847   1.083       .  S
C1839      C1840   1.405       .  A
C1839      H1848   1.083       .  S
C1840      C1846   1.420       .  A
C1840      C1841   1.415       .  A
C1841      C1843   1.399       .  A
C1841      C1842   1.409       .  A
C1842      H1849   1.084       .  S
C1843      C1844   1.395       .  A
C1843      H1850   1.084       .  S
C1844      C1845   1.409       .  A
C1844      H1851   1.083       .  S
C1845      C1846   1.412       .  A
C1846      H1852   1.084       .  S
C1853      C1854   1.406       .  A
C1853      C1858   1.411       .  A
C1854      C1855   1.405       .  A
C1854      H1863   1.083       .  S
C1855      C1856   1.406       .  A
C1855      H1864   1.083       .  S
C1856      C1862   1.413       .  A
C1856      C1857   1.413       .  A
C1857      C1859   1.402       .  A
C1857      C1858   1.406       .  A
C1858      H1865   1.084       .  S
C1859      C1860   1.396       .  A
C1859      H1866   1.084       .  S
C1860      C1861   1.405       .  A
C1860      H1867   1.084       .  S
C1861      C1862   1.409       .  A
C1862      H1868   1.084       .  S
C1869      C1870   1.404       .  A
C1869      C1874   1.407   1_554  A
C1870      C1871   1.397       .  A
C1870      H1879   1.083       .  S
C1871      C1872   1.403       .  A
C1871      H1880   1.084       .  S
C1872      C1878   1.402       .  A
C1872      C1873   1.413   1_554  A
C1873      C1875   1.404       .  A
C1873      C1874   1.403       .  A
C1874      H1881   1.085       .  S
C1875      C1876   1.399       .  A
C1875      H1882   1.084       .  S
C1876      C1877   1.404       .  A
C1876      H1883   1.083       .  S
C1877      C1878   1.405   1_556  A
C1878      H1884   1.084       .  S
C1885      C1886   1.406       .  A
C1885      C1890   1.404       .  A
C1886      C1887   1.403       .  A
C1886      H1895   1.083       .  S
C1887      C1888   1.406       .  A
C1887      H1896   1.083       .  S
C1888      C1894   1.406       .  A
C1888      C1889   1.412       .  A
C1889      C1891   1.397       .  A
C1889      C1890   1.393       .  A
C1890      H1897   1.084       .  S
C1891      C1892   1.388       .  A
C1891      H1898   1.084       .  S
C1892      C1893   1.407       .  A
C1892      H1899   1.083       .  S
C1893      C1894   1.410       .  A
C1894      H1900   1.084       .  S
C1901      C1902   1.405       .  A
C1901      C1906   1.407       .  A
C1902      C1903   1.390       .  A
C1902      H1911   1.083       .  S
C1903      C1904   1.397       .  A
C1903      H1912   1.084       .  S
C1904      C1910   1.396       .  A
C1904      C1905   1.415       .  A
C1905      C1907   1.405       .  A
C1905      C1906   1.407       .  A
C1906      H1913   1.084       .  S
C1907      C1908   1.402       .  A
C1907      H1914   1.083       .  S
C1908      C1909   1.404       .  A
C1908      H1915   1.083       .  S
C1909      C1910   1.401       .  A
C1910      H1916   1.085       .  S
C1917      C1918   1.406   1_556  A
C1917      C1922   1.404       .  A
C1918      C1919   1.398       .  A
C1918      H1927   1.083       .  S
C1919      C1920   1.402       .  A
C1919      H1928   1.084       .  S
C1920      C1926   1.406       .  A
C1920      C1921   1.415   1_554  A
C1921      C1923   1.401       .  A
C1921      C1922   1.402       .  A
C1922      H1929   1.084       .  S
C1923      C1924   1.395       .  A
C1923      H1930   1.084       .  S
C1924      C1925   1.404       .  A
C1924      H1931   1.084       .  S
C1925      C1926   1.404   1_556  A
C1926      H1932   1.084       .  S
