geometry optimzed in LAMMPS
_audit_creation_date              2020-12-01 
_audit_creation_method            'lammps2cif' 
_symmetry_space_group_name_H-M    'P1' 
_symmetry_Int_Tables_number       1 
_symmetry_cell_setting            triclinic 
loop_ 
_symmetry_equiv_pos_as_xyz 
  x,y,z 
_cell_length_a                    37.74464185 
_cell_length_b                    37.42409564036571 
_cell_length_c                    69.48218324561797 
_cell_angle_alpha                 89.92616169742975 
_cell_angle_beta                  90.07455089232651 
_cell_angle_gamma                 90.03920334276877 
loop_ 
_atom_site_label 
_atom_site_type_symbol 
_atom_site_fract_x 
_atom_site_fract_y 
_atom_site_fract_z 
_atom_site_charge 
C1          C  0.82835732  0.62810304  0.32071489     0.03800
C2          C  0.84597774  0.61226381  0.33629542    -0.12300
C3          C  0.88008437  0.62361338  0.34166617     0.01300
C4          C  0.89680936  0.65073992  0.33096976    -0.00900
C5          C  0.87966524  0.66641622  0.31515963     0.03800
C6          C  0.84547790  0.65505965  0.31023624    -0.10300
H7          H  0.83285876  0.59138411  0.34442825     0.09400
H8          H  0.92326023  0.65948137  0.33470333     0.06900
H9          H  0.83215808  0.66738131  0.29821409     0.06800
C10         C  0.78307481  0.76795617  0.11557703     0.03800
C11         C  0.76691967  0.73824863  0.12413015    -0.12300
C12         C  0.73300489  0.72722470  0.11857769     0.01300
C13         C  0.71469652  0.74682075  0.10445573    -0.10900
C14         C  0.73010823  0.77725997  0.09597361     0.03800
C15         C  0.76477642  0.78716342  0.10131041    -0.10300
H16         H  0.78082570  0.72367190  0.13531601     0.09400
H17         H  0.68791261  0.73927414  0.10060866     0.06900
H18         H  0.77662551  0.81106277  0.09538520     0.06800
C19         C  0.34486401  0.72743203  0.32872998     0.03800
C20         C  0.36256320  0.74588904  0.34353098    -0.12300
C21         C  0.34952526  0.77889577  0.35025015     0.01300
C22         C  0.31786113  0.79248541  0.34243406    -0.10900
C23         C  0.30030835  0.77430237  0.32761564     0.03800
C24         C  0.31420157  0.74220697  0.32067330    -0.10300
H25         H  0.38702189  0.73521418  0.34933118     0.09400
H26         H  0.30774695  0.81810883  0.34704363     0.06900
H27         H  0.30076750  0.72838025  0.30905607     0.06800
C28         C  0.87786245  0.25956690  0.13127808     0.03800
C29         C  0.84930530  0.27750288  0.13972623    -0.12300
C30         C  0.83726770  0.31018224  0.13236146     0.01300
C31         C  0.85453449  0.32532870  0.11639741    -0.10900
C32         C  0.88316435  0.30764245  0.10770818     0.03800
C33         C  0.89467704  0.27485289  0.11528486    -0.10300
H34         H  0.83598927  0.26596649  0.15200132     0.09400
H35         H  0.84571407  0.35064995  0.11060036     0.06900
H36         H  0.91707226  0.26131253  0.10889987     0.06800
C37         C  0.11365082  0.88144123  0.26347160     0.43200
N38         N  0.10014153  0.92391393  0.24427363     0.02000
C39         C  0.94596741  0.02257079  0.24121280    -0.05800
H40         H  0.93369701  0.88130154  0.22981857     0.07500
C41         C  0.00176967  0.89651118  0.17009361    -0.06200
Co42       Co  0.03339544  0.96062621  0.25542333     0.74200
N43         N  0.97405021  0.91938037  0.23816382    -0.25400
Co44       Co  0.97489381  0.95935051  0.21705845     0.74100
C45         C  0.97021289  0.87757035  0.17655583     0.43300
N46         N  0.08389407  0.92400853  0.18719586     0.01700
N47         N  0.98036978  0.92098838  0.19574169     0.01800
N48         N  0.98307615  0.02117449  0.26682450    -0.46200
H49         H  0.06468723  0.89163203  0.28240941     0.07500
N50         N  0.99640679  0.92029005  0.25278403     0.02000
N51         N  0.97808080  0.99931826  0.19597527     0.01800
C52         C  0.96830178  0.04451700  0.17792382     0.43400
N53         N  0.10601640  0.92378997  0.20192824    -0.24800
C54         C  0.07310884  0.02815520  0.26902737    -0.05700
N55         N  0.12442383  0.89934424  0.24772861    -0.45900
N56         N  0.95537340  0.02576762  0.19297509    -0.46100
C57         C  0.10480189  0.04717410  0.26308458     0.43200
N58         N  0.99253968  0.99779647  0.25347457     0.02000
N59         N  0.10519708  0.00226113  0.20209317    -0.24800
N60         N  0.07417252  0.92346275  0.25692939    -0.25300
N61         N  0.08355600  0.00179088  0.18717774     0.01700
H62         H  0.15080203  0.03441023  0.20918126     0.07600
H63         H  0.01898454  0.03484963  0.16031600     0.07600
N64         N  0.97080100  0.99756128  0.23859801    -0.25400
N65         N  0.00628687  0.92266043  0.18307527    -0.25000
N66         N  0.09782967  0.00200801  0.24469732     0.02000
C67         C  0.96709265  0.87229911  0.25715835     0.43400
C68         C  0.12598150  0.89419471  0.20084633    -0.06200
N69         N  0.00497027  0.00006787  0.18383364    -0.25000
H70         H  0.01832145  0.89160810  0.15768192     0.07600
N71         N  0.99315548  0.89265738  0.26449162    -0.46200
H72         H  0.14573791  0.88579653  0.21117821     0.07600
C73         C  0.11971326  0.04451164  0.18125315     0.43300
C74         C  0.08066666  0.89768796  0.26991345    -0.05700
Co75       Co  0.10324263  0.96310464  0.22327044     0.73800
N76         N  0.08723935  0.89576746  0.17595232    -0.45900
C77         C  0.95426852  0.03818806  0.25987256     0.43500
N78         N  0.11895416  0.02964637  0.24796129    -0.45900
Co79       Co  0.04480029  0.96227745  0.18485674     0.73900
C80         C  0.00104686  0.02764179  0.17180743    -0.06300
C81         C  0.95416005  0.88974531  0.23972682    -0.05800
N82         N  0.07090955  0.00073183  0.25680202    -0.25300
N83         N  0.95808291  0.89450333  0.19230917    -0.46100
H84         H  0.92348018  0.02730399  0.23189135     0.07500
C85         C  0.12863352  0.02876658  0.19978285    -0.06200
Cl86       Cl  0.03907703  0.96148220  0.22015445    -0.49200
C87         C  0.11326135  0.87587695  0.18367610     0.43300
H88         H  0.05476771  0.03388769  0.28055761     0.07500
N89         N  0.09190553  0.02611811  0.17405510    -0.45900
C90         C  0.24413985  0.61576669  0.13482771     0.03800
C91         C  0.22806319  0.64578439  0.14316780    -0.12300
C92         C  0.19670555  0.66013861  0.13572717     0.01300
C93         C  0.18160621  0.64465193  0.11934536    -0.10900
C94         C  0.19757588  0.61503028  0.11045504     0.03800
C95         C  0.22906376  0.60084612  0.11816919    -0.10300
H96         H  0.24051923  0.65877504  0.15521693     0.09400
H97         H  0.15764348  0.65606844  0.11336394     0.06900
H98         H  0.24132777  0.57785383  0.11146097     0.06800
C99         C  0.77374749  0.14555599  0.32991460     0.03800
C100        C  0.75460484  0.12709685  0.34409729    -0.12300
C101        C  0.72315718  0.14170080  0.35159382     0.01300
C102        C  0.71139330  0.17525330  0.34492317    -0.10900
C103        C  0.73011321  0.19350059  0.33054784     0.03800
C104        C  0.76148572  0.17866173  0.32337992    -0.10300
H105        H  0.76339724  0.10090763  0.34873713     0.09400
H106        H  0.68655418  0.18621115  0.34996876     0.06900
H107        H  0.77635544  0.19264892  0.31237551     0.06800
C108        C  0.19843870  0.30086876  0.34138816     0.03800
C109        C  0.18288842  0.27119627  0.33226773    -0.12300
C110        C  0.19884043  0.25573108  0.31601123     0.01300
C111        C  0.23001980  0.27093369  0.30873991    -0.10900
C112        C  0.24581600  0.30041401  0.31760345     0.03800
C113        C  0.22997477  0.31526537  0.33399138    -0.10300
H114        H  0.15865045  0.25990744  0.33799804     0.09400
H115        H  0.24247370  0.25986316  0.29611884     0.06900
H116        H  0.24147924  0.33858970  0.34069343     0.06800
C117        C  0.35642416  0.14887710  0.09536213     0.03800
C118        C  0.32410426  0.13620059  0.10305652    -0.12300
C119        C  0.30662916  0.15522704  0.11767217     0.01300
C120        C  0.32106064  0.18754755  0.12416934    -0.10900
C121        C  0.35275626  0.20087981  0.11663508     0.03800
C122        C  0.37021870  0.18158616  0.10213188    -0.10300
H123        H  0.31314039  0.11096374  0.09837738     0.09400
H124        H  0.30756510  0.20254922  0.13527943     0.06900
H125        H  0.39528637  0.19131031  0.09666531     0.06800
C126        C  0.61832216  0.53343116  0.27247558     0.43200
N127        N  0.57601343  0.52419662  0.25257517     0.02000
C128        C  0.47283177  0.37343245  0.24534528    -0.05800
H129        H  0.60975517  0.35020650  0.24054891     0.07500
C130        C  0.61090857  0.42764104  0.18039759    -0.06200
Co131      Co  0.53668587  0.45771443  0.26234001     0.74200
N132        N  0.57756809  0.39636250  0.24658271    -0.25400
Co133      Co  0.54146659  0.39828509  0.22414387     0.74100
C134        C  0.62911207  0.39596789  0.18714090     0.43300
N135        N  0.58069512  0.50916368  0.19485519     0.01700
N136        N  0.58249767  0.40313674  0.20404928     0.01800
N137        N  0.47129511  0.41313903  0.26996160    -0.46200
H138        H  0.60562558  0.48244468  0.28964597     0.07500
N139        N  0.57540725  0.41802441  0.26150209     0.02000
N140        N  0.50482964  0.40115421  0.20188931     0.01800
C141        C  0.46494404  0.38690978  0.18132129     0.43400
N142        N  0.57954402  0.53111730  0.20968975    -0.24800
C143        C  0.47168169  0.50405846  0.27533938    -0.05700
N144        N  0.60192456  0.54684113  0.25674328    -0.45900
N145        N  0.48082677  0.37654045  0.19776547    -0.46100
C146        C  0.45530363  0.53711377  0.26851652     0.43200
N147        N  0.49887305  0.41854269  0.25867892     0.02000
N148        N  0.50219412  0.52917798  0.20740459    -0.24800
N149        N  0.57471271  0.49707759  0.26473444    -0.25300
N150        N  0.50406108  0.50636923  0.19294153     0.01700
H151        H  0.46474551  0.57092720  0.21426210     0.07600
H152        H  0.47745724  0.43604368  0.16246676     0.07600
N153        N  0.50054986  0.39574042  0.24421895    -0.25400
N154        N  0.58257247  0.43006583  0.19176357    -0.25000
N155        N  0.49861283  0.52373547  0.24999842     0.02000
C156        C  0.61651224  0.38119621  0.26880808     0.43400
C157        C  0.60474073  0.55607495  0.20756467    -0.06200
N158        N  0.50594293  0.42719449  0.18910319    -0.25000
H159        H  0.61794830  0.44601044  0.16899629     0.07600
N160        N  0.59779507  0.40929850  0.27546489    -0.46200
H161        H  0.60861389  0.57899399  0.21680133     0.07600
C162        C  0.45814284  0.53727002  0.18676009     0.43300
C163        C  0.60044125  0.50055345  0.27783356    -0.05700
Co164      Co  0.53917636  0.52791529  0.22995769     0.73800
N165        N  0.60482542  0.51873644  0.18201006    -0.45900
C166        C  0.45375136  0.38525982  0.26238833     0.43500
N167        N  0.47367503  0.54789092  0.25295170    -0.45900
Co168      Co  0.54333150  0.46829255  0.19176511     0.73900
C169        C  0.48192705  0.42021945  0.17527525    -0.06300
C170        C  0.60322618  0.37251179  0.24976802    -0.05800
N171        N  0.49803068  0.49767521  0.26278997    -0.25300
N172        N  0.61027421  0.38183858  0.20182799    -0.46100
H173        H  0.46695308  0.35181148  0.23553673     0.07500
C174        C  0.47370481  0.55000195  0.20472104    -0.06200
Cl175      Cl  0.54023021  0.46310265  0.22705971    -0.49200
C176        C  0.62156590  0.54762580  0.18926114     0.43300
H177        H  0.46552264  0.48818291  0.28791585     0.07500
N178        N  0.47820894  0.51023077  0.18027132    -0.45900
N179        N  0.53324876  0.96320471  0.49918780    -0.35900
N180        N  0.57178769  0.00180723  0.46906879    -0.56500
N181        N  0.53622171  0.95869245  0.43963517    -0.35900
N182        N  0.49308924  0.92456240  0.46981412    -0.56500
C183        C  0.54987812  0.98800940  0.51007800     0.27700
C184        C  0.50934299  0.94642334  0.51051051     0.27700
C185        C  0.55457564  0.98131890  0.42813935     0.27700
C186        C  0.51251455  0.94104083  0.42851922     0.27700
C187        C  0.58797197  0.01604348  0.48464524     0.36300
C188        C  0.58971061  0.01363725  0.45348898     0.36300
C189        C  0.48101449  0.90725037  0.48561425     0.36300
C190        C  0.48150893  0.90592558  0.45437755     0.36300
C191        C  0.53670316  0.98665253  0.52869500    -0.21200
C192        C  0.51110930  0.96050547  0.52896180    -0.21200
C193        C  0.54291737  0.97734763  0.40931554    -0.21200
C194        C  0.51641363  0.95202737  0.40955764    -0.21200
C195        C  0.61595839  0.03754268  0.47892739    -0.22300
C196        C  0.61717254  0.03591437  0.45925662    -0.22300
C197        C  0.46141658  0.87759707  0.48016534    -0.22300
C198        C  0.46158023  0.87685262  0.46042164    -0.22200
C199        C  0.57755162  0.01088350  0.50398337    -0.17600
C200        C  0.48672357  0.91805578  0.50491020    -0.17600
C201        C  0.48791134  0.91483626  0.43485852    -0.17600
C202        C  0.58144112  0.00553377  0.43407172    -0.17600
H203        H  0.54474936  0.00273904  0.54087754     0.15300
H204        H  0.49562490  0.95274897  0.54138592     0.15300
H205        H  0.55222902  0.99147776  0.39669755     0.15300
H206        H  0.50160975  0.94288471  0.39715245     0.15300
H207        H  0.63372687  0.05284543  0.48796725     0.13600
H208        H  0.63630672  0.04955760  0.45028478     0.13600
H209        H  0.44848385  0.85833693  0.48942756     0.13600
H210        H  0.44882098  0.85687458  0.45153999     0.13600
H211        H  0.53903034  0.95693125  0.48511212     0.26900
H212        H  0.54024108  0.95481971  0.45416022     0.26800
N213        N  0.04425805  0.46305671  0.99872505    -0.35900
N214        N  0.08843343  0.49516660  0.96893938    -0.56500
N215        N  0.04566906  0.45863728  0.93930257    -0.35900
N216        N  0.00619012  0.42155108  0.96935791    -0.56500
C217        C  0.06906124  0.47925694  0.00973468     0.27700
C218        C  0.02683794  0.43953552  0.01004210     0.27700
C219        C  0.07061710  0.47401216  0.92807701     0.27700
C220        C  0.02731230  0.43518225  0.92832605     0.27700
C221        C  0.09999714  0.51432303  0.98421544     0.36300
C222        C  0.10084102  0.51184749  0.95306241     0.36300
C223        C  0.98903958  0.40944495  0.98513665     0.36300
C224        C  0.98880918  0.40822854  0.95391846     0.36300
C225        C  0.06699287  0.46624374  0.02840706    -0.21200
C226        C  0.04040710  0.44124338  0.02860392    -0.21200
C227        C  0.06779331  0.46050237  0.90954618    -0.21200
C228        C  0.04043314  0.43614865  0.90968532    -0.21200
C229        C  0.12020162  0.54301509  0.97805115    -0.22300
C230        C  0.12071306  0.54150208  0.95835710    -0.22300
C231        C  0.96097470  0.38775270  0.97971347    -0.22300
C232        C  0.96083986  0.38695145  0.95997550    -0.22200
C233        C  0.09299352  0.50610539  0.00368874    -0.17600
C234        C  0.99860985  0.41690367  0.00440220    -0.17600
C235        C  0.99851848  0.41358387  0.93443484    -0.17600
C236        C  0.09513884  0.50068240  0.93381940    -0.17600
H237        H  0.08319013  0.47368125  0.04063178     0.15300
H238        H  0.03227095  0.42581107  0.04102354     0.15300
H239        H  0.08374127  0.46750271  0.89716343     0.15300
H240        H  0.03134256  0.42086870  0.89742040     0.15300
H241        H  0.13287020  0.56326336  0.98678301     0.13600
H242        H  0.13383245  0.56051848  0.94903195     0.13600
H243        H  0.94255726  0.37379823  0.98899174     0.13600
H244        H  0.94240409  0.37207721  0.95112617     0.13600
H245        H  0.03843317  0.46890096  0.98441480     0.26900
H246        H  0.04059735  0.46499541  0.95358299     0.26800
N247        N  0.03332967  0.45877166  0.44876793    -0.35900
N248        N  0.99502274  0.49672577  0.47926992    -0.56500
N249        N  0.03231939  0.45469610  0.50834588    -0.35900
N250        N  0.07519026  0.42150330  0.47771673    -0.56500
C251        C  0.01727234  0.48467158  0.43836403     0.27700
C252        C  0.05844855  0.44390661  0.43745409     0.27700
C253        C  0.01459071  0.47767899  0.51991826     0.27700
C254        C  0.05700046  0.43779590  0.51918120     0.27700
C255        C  0.97743261  0.50957428  0.46379473     0.36300
C256        C  0.97676487  0.50745458  0.49494396     0.36300
C257        C  0.08765049  0.40475273  0.46184207     0.36300
C258        C  0.08778417  0.40321142  0.49305949     0.36300
C259        C  0.03202573  0.48590413  0.42008644    -0.21200
C260        C  0.05798666  0.46020645  0.41952000    -0.21200
C261        C  0.02769817  0.47475507  0.53850756    -0.21200
C262        C  0.05440606  0.44965323  0.53804597    -0.21200
C263        C  0.94805947  0.52890502  0.46965344    -0.22300
C264        C  0.94760893  0.52754601  0.48936470    -0.22300
C265        C  0.10859021  0.37598284  0.46711911    -0.22300
C266        C  0.10876232  0.37504651  0.48683661    -0.22200
C267        C  0.98858712  0.50609320  0.44450382    -0.17600
C268        C  0.08120739  0.41544010  0.44262548    -0.17600
C269        C  0.08149639  0.41166032  0.51265589    -0.17600
C270        C  0.98674988  0.50098360  0.51426944    -0.17600
H271        H  0.02482775  0.50344147  0.40831946     0.15300
H272        H  0.07475019  0.45434916  0.40729855     0.15300
H273        H  0.01908792  0.48934528  0.55110035     0.15300
H274        H  0.07027800  0.44129935  0.55022817     0.15300
H275        H  0.92911225  0.54287504  0.46068658     0.13600
H276        H  0.92809312  0.54010721  0.49853017     0.13600
H277        H  0.12227086  0.35747165  0.45776848     0.13600
H278        H  0.12255190  0.35552815  0.49556904     0.13600
H279        H  0.02627604  0.45047443  0.46246102     0.26900
H280        H  0.02725376  0.44996798  0.49393897     0.26800
N281        N  0.54890035  0.96482351  0.94982771    -0.35900
N282        N  0.51108640  0.00748747  0.97802415    -0.56500
N283        N  0.54303945  0.96462046  0.00921796    -0.35900
N284        N  0.58557461  0.92659409  0.98087121    -0.56500
C285        C  0.53491426  0.99033914  0.93827805     0.27700
C286        C  0.57518910  0.94874184  0.93988346     0.27700
C287        C  0.52708236  0.99064478  0.01957271     0.27700
C288        C  0.56614329  0.94755931  0.02101428     0.27700
C289        C  0.49426990  0.01886942  0.96190272     0.36300
C290        C  0.49176132  0.01926849  0.99311735     0.36300
C291        C  0.59822939  0.90825457  0.96562514     0.36300
C292        C  0.59462061  0.90770183  0.99671015     0.36300
C293        C  0.55235971  0.99028251  0.92072875    -0.21200
C294        C  0.57780987  0.96407783  0.92174990    -0.21200
C295        C  0.53969330  0.98963723  0.03833578    -0.21200
C296        C  0.56435379  0.96251418  0.03923273    -0.21200
C297        C  0.46442647  0.03834535  0.96680547    -0.22300
C298        C  0.46297746  0.03882379  0.98652889    -0.22300
C299        C  0.61564265  0.87770450  0.97179326    -0.22300
C300        C  0.61338648  0.87735877  0.99148441    -0.22200
C301        C  0.50599496  0.01277476  0.94282782    -0.17600
C302        C  0.59572078  0.91944985  0.94626668    -0.17600
C303        C  0.58831882  0.91851959  0.01588437    -0.17600
C304        C  0.50034171  0.01415297  0.01278928    -0.17600
H305        H  0.54734114  0.00742572  0.90846695     0.15300
H306        H  0.59612689  0.95704881  0.91039501     0.15300
H307        H  0.53196802  0.00668638  0.05017637     0.15300
H308        H  0.57928937  0.95474634  0.05186967     0.15300
H309        H  0.44554635  0.05090365  0.95722475     0.13600
H310        H  0.44286896  0.05201824  0.99503002     0.13600
H311        H  0.62882863  0.85785111  0.96304791     0.13600
H312        H  0.62450577  0.85716735  0.00088026     0.13600
H313        H  0.53965145  0.95734217  0.96327546     0.26900
H314        H  0.53731837  0.95797225  0.99509957     0.26800
C315        C  0.70793149  0.74724422  0.82237747     0.03800
C316        C  0.69118064  0.76304602  0.83827504    -0.12300
C317        C  0.70645508  0.79269219  0.84757214     0.01300
C318        C  0.73884044  0.80625281  0.84095990    -0.10900
C319        C  0.75568899  0.79115037  0.82493651     0.03800
C320        C  0.74020981  0.76152896  0.81588366    -0.10300
H321        H  0.66636021  0.75214855  0.84341976     0.09400
H322        H  0.75032597  0.82911144  0.84813508     0.06900
H323        H  0.75359280  0.74963631  0.80374392     0.06800
C324        C  0.79979851  0.27431117  0.83133064     0.03800
C325        C  0.81477024  0.24326381  0.82351470    -0.12300
C326        C  0.84764756  0.23053047  0.82989278     0.01300
C327        C  0.86603027  0.24946690  0.84420531    -0.10900
C328        C  0.85224965  0.28145199  0.85177773     0.03800
C329        C  0.81862325  0.29324198  0.84553330    -0.10300
H330        H  0.80080045  0.22890952  0.81228512     0.09400
H331        H  0.89197056  0.24031712  0.84869597     0.06900
H332        H  0.80770637  0.31785310  0.85102017     0.06800
C333        C  0.37755590  0.11678659  0.84141491     0.03800
C334        C  0.38647846  0.15161176  0.83548482    -0.12300
C335        C  0.36776536  0.16859767  0.82056020     0.01300
C336        C  0.33946268  0.15048904  0.81184448    -0.10900
C337        C  0.32956408  0.11614043  0.81776509     0.03800
C338        C  0.34884303  0.09919218  0.83250989    -0.10300
H339        H  0.40849691  0.16525413  0.84229141     0.09400
H340        H  0.32437254  0.16322555  0.80054980     0.06900
H341        H  0.34139915  0.07258755  0.83709320     0.06800
C342        C  0.22573927  0.70113378  0.82987417     0.03800
C343        C  0.25912265  0.68991331  0.82377461    -0.12300
C344        C  0.27429648  0.65851909  0.83094390     0.01300
C345        C  0.25610178  0.63871703  0.84496955    -0.10900
C346        C  0.22220547  0.64946180  0.85111931     0.03800
C347        C  0.20742886  0.68122169  0.84372371    -0.10300
H348        H  0.27307179  0.70564610  0.81310001     0.09400
H349        H  0.26735328  0.61390154  0.85020537     0.06900
H350        H  0.18128431  0.68982271  0.84811985     0.06800
C351        C  0.22453333  0.27147318  0.59288344     0.03800
C352        C  0.25623774  0.28593415  0.60036724    -0.12300
C353        C  0.27448858  0.26831979  0.61521032     0.01300
C354        C  0.26168015  0.23575145  0.62209365    -0.10900
C355        C  0.23057003  0.22070506  0.61474475     0.03800
C356        C  0.21209879  0.23849810  0.60002441    -0.10300
H357        H  0.26538703  0.31193643  0.59567711     0.09400
H358        H  0.27583977  0.22225486  0.63357485     0.06900
H359        H  0.18740212  0.22746208  0.59471892     0.06800
C360        C  0.70220554  0.17725862  0.62679646     0.03800
C361        C  0.68479705  0.16214299  0.61093135    -0.12300
C362        C  0.69779608  0.13099662  0.60216475     0.01300
C363        C  0.72864195  0.11500456  0.60954503    -0.10900
C364        C  0.74641551  0.12989781  0.62541189     0.03800
C365        C  0.73322855  0.16122544  0.63373855    -0.10300
H366        H  0.66080416  0.17452620  0.60568599     0.09400
H367        H  0.73864808  0.09096165  0.60288455     0.06900
H368        H  0.74710475  0.17277663  0.64583416     0.06800
C369        C  0.46074083  0.54552587  0.77049098     0.43200
N370        N  0.47201075  0.50284910  0.75104843     0.02000
C371        C  0.61837782  0.39235398  0.74946029    -0.05800
H372        H  0.64353388  0.53121655  0.73901478     0.07500
C373        C  0.57749483  0.52128633  0.67704785    -0.06200
Co374      Co  0.53577635  0.46122842  0.76287460     0.74200
N375        N  0.59897856  0.49751724  0.74642292    -0.25400
Co376      Co  0.59536680  0.45793696  0.72516668     0.74100
C377        C  0.61177922  0.53548097  0.68319003     0.43300
N378        N  0.49032419  0.50235608  0.69428685     0.01700
N379        N  0.59430967  0.49655509  0.70369735     0.01800
N380        N  0.58143232  0.39695863  0.77494634    -0.46200
H381        H  0.50852934  0.53160181  0.78969642     0.07500
N382        N  0.57606888  0.49848980  0.76075935     0.02000
N383        N  0.58951018  0.41873177  0.70395939     0.01800
C384        C  0.59695934  0.37397701  0.68540746     0.43400
N385        N  0.46728230  0.50341814  0.70856648    -0.24800
C386        C  0.49018750  0.39812425  0.77668205    -0.05700
N387        N  0.44917423  0.52880521  0.75453212    -0.45900
N388        N  0.61057772  0.39107462  0.70082194    -0.46100
C389        C  0.45702487  0.38170448  0.77088855     0.43200
N390        N  0.57377017  0.42083877  0.76143518     0.02000
N391        N  0.46281642  0.42536494  0.70860726    -0.24800
N392        N  0.49775134  0.50135241  0.76387681    -0.25300
N393        N  0.48502378  0.42483258  0.69396356     0.01700
H394        H  0.41535804  0.39547768  0.71503870     0.07600
H395        H  0.54816627  0.38826857  0.66707548     0.07600
N396        N  0.59562159  0.41926848  0.74666990    -0.25400
N397        N  0.56874258  0.49744773  0.69074568    -0.25000
N398        N  0.46859595  0.42468764  0.75154868     0.02000
C399        C  0.61014988  0.54294484  0.76602814     0.43400
C400        C  0.44755841  0.53299926  0.70664732    -0.06200
N401        N  0.56322251  0.42050381  0.69143748    -0.25000
H402        H  0.56268355  0.52651290  0.66401086     0.07600
N403        N  0.58179188  0.52517792  0.77281859    -0.46200
H404        H  0.42667207  0.54152168  0.71623505     0.07600
C405        C  0.44713860  0.38400963  0.68748235     0.43300
C406        C  0.49261479  0.52711688  0.77697124    -0.05700
Co407      Co  0.46674525  0.46399857  0.72995606     0.73800
N408        N  0.48767963  0.52990767  0.68245302    -0.45900
C409        C  0.60884460  0.37754407  0.76814094     0.43500
N410        N  0.44490356  0.39933607  0.75519869    -0.45900
Co411      Co  0.52665834  0.46135076  0.69220902     0.73900
C412        C  0.56574825  0.39335269  0.67906568    -0.06300
C413        C  0.62177799  0.52482898  0.74853120    -0.05800
N414        N  0.49519048  0.42429163  0.76392269    -0.25300
N415        N  0.62053762  0.51872096  0.69967090    -0.46100
H416        H  0.64064566  0.38595000  0.74031332     0.07500
C417        C  0.43805869  0.40019143  0.70589489    -0.06200
Cl418      Cl  0.53113677  0.46108484  0.72754912    -0.49200
C419        C  0.46133068  0.55029366  0.68941454     0.43300
H420        H  0.50749244  0.39186456  0.78863113     0.07500
N421        N  0.47613867  0.40094421  0.68075188    -0.45900
C422        C  0.84250889  0.69240126  0.61825502     0.03800
C423        C  0.81158503  0.67685588  0.62560905    -0.12300
C424        C  0.79879207  0.64448565  0.61836080     0.01300
C425        C  0.81699248  0.62745663  0.60340835    -0.10900
C426        C  0.84841771  0.64234375  0.59595010     0.03800
C427        C  0.86051779  0.67542332  0.60316026    -0.10300
H428        H  0.79746762  0.68973159  0.63726164     0.09400
H429        H  0.80767278  0.60176072  0.59830149     0.06900
H430        H  0.88511370  0.68684154  0.59804029     0.06800
C431        C  0.32039689  0.79487309  0.62681379     0.03800
C432        C  0.33896148  0.81236706  0.61202253    -0.12300
C433        C  0.37339257  0.80153465  0.60700366     0.01300
C434        C  0.38907263  0.77274433  0.61688118    -0.10900
C435        C  0.37078052  0.75514934  0.63166490     0.03800
C436        C  0.33647777  0.76624216  0.63638638    -0.10300
H437        H  0.32702600  0.83467827  0.60453832     0.09400
H438        H  0.41535996  0.76373309  0.61304079     0.06900
H439        H  0.32187928  0.75225644  0.64745941     0.06800
C440        C  0.95051466  0.89353254  0.76398999     0.43200
N441        N  0.99361595  0.90306914  0.74484289     0.02000
C442        C  0.10494874  0.04845706  0.74146858    -0.05800
H443        H  0.97085835  0.08029113  0.73304255     0.07500
C444        C  0.96836069  0.00129090  0.67308458    -0.06200
Co445      Co  0.03470785  0.96768053  0.75612450     0.74200
N446        N  0.99893011  0.03156649  0.73950069    -0.25400
Co447      Co  0.03688288  0.02727539  0.71804240     0.74100
C448        C  0.95159680  0.03400077  0.67953265     0.43300
N449        N  0.99440140  0.91837739  0.68733920     0.01700
N450        N  0.99734249  0.02455566  0.69691722     0.01800
N451        N  0.10174741  0.00886703  0.76611433    -0.46200
H452        H  0.96311981  0.94350947  0.78196928     0.07500
N453        N  0.99827093  0.00949764  0.75431276     0.02000
N454        N  0.07489030  0.02207445  0.69666771     0.01800
C455        C  0.11613813  0.03447385  0.67666442     0.43400
N456        N  0.99353574  0.89651559  0.70223521    -0.24800
C457        C  0.09533420  0.91821667  0.77107349    -0.05700
N458        N  0.96752081  0.88041356  0.74848228    -0.45900
N459        N  0.10012678  0.04553261  0.69289222    -0.46100
C460        C  0.11050240  0.88426815  0.76493192     0.43200
N461        N  0.07508098  0.00494127  0.75392261     0.02000
N462        N  0.07043390  0.89419557  0.70201458    -0.24800
N463        N  0.99466625  0.92990445  0.75716130    -0.25300
N464        N  0.07108151  0.91700623  0.68749911     0.01700
H465        H  0.10189462  0.84769643  0.70884748     0.07600
H466        H  0.10228174  0.98609180  0.65758527     0.07600
N467        N  0.07619850  0.02768736  0.73938228    -0.25400
N468        N  0.99637712  0.99757717  0.68468579    -0.25000
N469        N  0.07070706  0.89997945  0.74472712     0.02000
C470        C  0.95936333  0.04925819  0.76090876     0.43400
C471        C  0.96769306  0.87259953  0.69960440    -0.06200
N472        N  0.07317890  0.99622562  0.68381237    -0.25000
H473        H  0.96062060  0.98315282  0.66172463     0.07600
N474        N  0.97553699  0.01967736  0.76777235    -0.46200
H475        H  0.96221979  0.84996752  0.70883383     0.07600
C476        C  0.11301780  0.88067358  0.68147692     0.43300
C477        C  0.96830208  0.92619220  0.76984684    -0.05700
Co478      Co  0.03205763  0.89778075  0.72350925     0.73800
N479        N  0.97097582  0.90967430  0.67388485    -0.45900
C480        C  0.12166951  0.03577743  0.75918563     0.43500
N481        N  0.09379077  0.87443870  0.74864957    -0.45900
Co482      Co  0.03378420  0.95729822  0.68540910     0.73900
C483        C  0.09812399  0.00197356  0.67037705    -0.06300
C484        C  0.97486076  0.05729573  0.74223536    -0.05800
N485        N  0.07106764  0.92592980  0.75755912    -0.25300
N486        N  0.97075550  0.04719295  0.69433389    -0.46100
H487        H  0.11300177  0.06968172  0.73184534     0.07500
C488        C  0.09623583  0.87009281  0.69948932    -0.06200
Cl489      Cl  0.03435761  0.96250540  0.72077397    -0.49200
C490        C  0.95283825  0.88140476  0.68089417     0.43300
H491        H  0.10057352  0.93367127  0.78390832     0.07500
N492        N  0.09616123  0.90984942  0.67482089    -0.45900
C493        C  0.23982117  0.80951224  0.65055265     0.30500
C494        C  0.21549371  0.80536488  0.66558168    -0.35900
C495        C  0.18716955  0.82940015  0.66564118     0.16400
C496        C  0.18289592  0.85547265  0.65174776     0.22300
C497        C  0.20697368  0.85923133  0.63653636    -0.34000
C498        C  0.23556614  0.83541616  0.63661048     0.16300
O499        O  0.26951056  0.79167762  0.64856721    -0.26000
C500        C  0.28475597  0.80623646  0.63317057     0.06100
C501        C  0.26458942  0.83357506  0.62504852    -0.30900
O502        O  0.15579923  0.87651135  0.65531703    -0.22700
C503        C  0.14269356  0.86370841  0.67167481    -0.02700
C504        C  0.16094538  0.83430803  0.67874295    -0.17200
H505        H  0.21914190  0.78567303  0.67683378     0.20800
H506        H  0.20432634  0.88010436  0.62583571     0.19200
H507        H  0.27066266  0.85049738  0.61286418     0.19100
H508        H  0.15635078  0.81958173  0.69192385     0.15000
C509        C  0.89866543  0.81289458  0.66430966     0.30500
C510        C  0.87778840  0.78230359  0.66643325    -0.35900
C511        C  0.87141544  0.76282543  0.64964880     0.16400
C512        C  0.88486834  0.77238187  0.63192084     0.22300
C513        C  0.90549934  0.80343941  0.62973013    -0.34000
C514        C  0.91160474  0.82330382  0.64658227     0.16300
O515        O  0.91012333  0.83316019  0.67842847    -0.26000
C516        C  0.93027581  0.85731569  0.66972514     0.06100
C517        C  0.93203214  0.85282353  0.64985876    -0.30900
O518        O  0.87668498  0.74902690  0.61836147    -0.22700
C519        C  0.85733140  0.72460785  0.62757716    -0.02700
C520        C  0.85339595  0.73191556  0.64708248    -0.17200
H521        H  0.86795926  0.77375560  0.68032621     0.20800
H522        H  0.91663369  0.81111583  0.61598692     0.19200
H523        H  0.94811464  0.86739749  0.63962217     0.19100
H524        H  0.84004332  0.71619481  0.65796821     0.15000
C525        C  0.42152765  0.63092862  0.67674646     0.30500
C526        C  0.39722364  0.65894935  0.67827504    -0.35900
C527        C  0.39711290  0.68338690  0.66303657     0.16400
C528        C  0.41949148  0.68074276  0.64742044     0.22300
C529        C  0.44417297  0.65291400  0.64599318    -0.34000
C530        C  0.44414907  0.62827127  0.66119659     0.16300
O531        O  0.42482852  0.60408810  0.68885468    -0.26000
C532        C  0.44989213  0.58405878  0.68096386     0.06100
C533        C  0.46308133  0.59778559  0.66381587    -0.30900
O534        O  0.41372417  0.70587723  0.63449594    -0.22700
C535        C  0.38717845  0.72475798  0.64190767    -0.02700
C536        C  0.37603144  0.71200846  0.65975516    -0.17200
H537        H  0.37905048  0.66103412  0.69025881     0.20800
H538        H  0.46153975  0.65018673  0.63370021     0.19200
H539        H  0.48300117  0.58644356  0.65444359     0.19100
H540        H  0.35525217  0.72197108  0.66901132     0.15000
C541        C  0.71973778  0.60295883  0.63318952     0.30500
C542        C  0.68581957  0.58759825  0.63145058    -0.35900
C543        C  0.66920113  0.57783680  0.64880742     0.16400
C544        C  0.68519945  0.58251816  0.66651176     0.22300
C545        C  0.71869734  0.59810745  0.66824622    -0.34000
C546        C  0.73498861  0.60814915  0.65103621     0.16300
O547        O  0.74033273  0.61420660  0.61902113    -0.26000
C548        C  0.76872929  0.62707976  0.62809653     0.06100
C549        C  0.76678052  0.62390638  0.64797224    -0.30900
O550        O  0.66633647  0.56952275  0.68077256    -0.22700
C551        C  0.63753763  0.55663941  0.67227153    -0.02700
C552        C  0.63758826  0.56122969  0.65236825    -0.17200
H553        H  0.67341915  0.58331912  0.61759152     0.20800
H554        H  0.73138091  0.60178441  0.68208490     0.19200
H555        H  0.78608643  0.63217792  0.65861262     0.19100
H556        H  0.61825860  0.55186381  0.64201809     0.15000
C557        C  0.64687226  0.30043525  0.67109194     0.30500
C558        C  0.67432658  0.27539533  0.67210072    -0.35900
C559        C  0.67606063  0.25110373  0.65683992     0.16400
C560        C  0.65241102  0.25131749  0.64169578     0.22300
C561        C  0.62484407  0.27624307  0.64071475    -0.34000
C562        C  0.62311263  0.30056781  0.65595396     0.16300
O563        O  0.64069275  0.32607417  0.68357779    -0.26000
C564        C  0.61260207  0.34266768  0.67632955     0.06100
C565        C  0.60040311  0.32796455  0.65921244    -0.30900
O566        O  0.65879971  0.22590887  0.62912592    -0.22700
C567        C  0.68697630  0.20909978  0.63624915    -0.02700
C568        C  0.69884096  0.22379877  0.65354006    -0.17200
H569        H  0.69307389  0.27497573  0.68389962     0.20800
H570        H  0.60612288  0.27666366  0.62890332     0.19200
H571        H  0.57842078  0.33654966  0.65032522     0.19100
H572        H  0.72050027  0.21549158  0.66270168     0.15000
C573        C  0.82259044  0.10675822  0.65164617     0.30500
C574        C  0.84952676  0.11182926  0.66527790    -0.35900
C575        C  0.87477465  0.08454262  0.66649496     0.16400
C576        C  0.87346135  0.05434926  0.65511057     0.22300
C577        C  0.84632983  0.04914879  0.64162079    -0.34000
C578        C  0.82120408  0.07652879  0.64034941     0.16300
O579        O  0.79673538  0.12917660  0.64782341    -0.26000
C580        C  0.77844625  0.11327161  0.63384197     0.06100
C581        C  0.79252117  0.08023357  0.62866080    -0.30900
O582        O  0.90023215  0.03267268  0.65828705    -0.22700
C583        C  0.91883916  0.04914831  0.67188728    -0.02700
C584        C  0.90430412  0.08148294  0.67763826    -0.17200
H585        H  0.85092596  0.13556625  0.67412980     0.20800
H586        H  0.84517930  0.02564625  0.63257915     0.19200
H587        H  0.78325240  0.06148853  0.61794501     0.19100
H588        H  0.91429118  0.10010951  0.68824836     0.15000
C589        C  0.17357192  0.10088338  0.66084670     0.30500
C590        C  0.19376206  0.13191745  0.66306522    -0.35900
C591        C  0.20185133  0.15034389  0.64613597     0.16400
C592        C  0.19078596  0.13930881  0.62816019     0.22300
C593        C  0.17130773  0.10755219  0.62587904    -0.34000
C594        C  0.16330581  0.08885784  0.64289699     0.16300
O595        O  0.15974292  0.08205618  0.67493541    -0.26000
C596        C  0.14082944  0.05717658  0.66600292     0.06100
C597        C  0.14228831  0.05972613  0.64603470    -0.30900
O598        O  0.19919734  0.16244061  0.61450269    -0.22700
C599        C  0.21625755  0.18821272  0.62394566    -0.02700
C600        C  0.21866208  0.18193384  0.64363248    -0.17200
H601        H  0.20130429  0.14187283  0.67710745     0.20800
H602        H  0.16186810  0.09881017  0.61194466     0.19200
H603        H  0.12754761  0.04442612  0.63551318     0.19100
H604        H  0.23000583  0.19891673  0.65463877     0.15000
C605        C  0.33764288  0.29825093  0.64839601     0.30500
C606        C  0.35209711  0.30270890  0.66680627    -0.35900
C607        C  0.38158600  0.32523517  0.66802058     0.16400
C608        C  0.39641774  0.34161231  0.65213569     0.22300
C609        C  0.38191107  0.33708275  0.63365788    -0.34000
C610        C  0.35177927  0.31518619  0.63250806     0.16300
O611        O  0.30916940  0.27961213  0.64423273    -0.26000
C612        C  0.30451952  0.28486294  0.62546517     0.06100
C613        C  0.33019593  0.30694296  0.61734759    -0.30900
O614        O  0.42270986  0.36316106  0.65679857    -0.22700
C615        C  0.42432892  0.36079608  0.67588948    -0.02700
C616        C  0.39944267  0.33759362  0.68366054    -0.17200
H617        H  0.34039969  0.29042321  0.67939968     0.20800
H618        H  0.39258896  0.35069363  0.62119550     0.19200
H619        H  0.33259204  0.31556647  0.60253319     0.19100
H620        H  0.39431353  0.33189410  0.69868011     0.15000
C621        C  0.35467396  0.61709162  0.81858499     0.30500
C622        C  0.38398083  0.59439939  0.82082916    -0.35900
C623        C  0.40488069  0.58931948  0.80436182     0.16400
C624        C  0.39709878  0.60508648  0.78686922     0.22300
C625        C  0.36849432  0.62845448  0.78477880    -0.34000
C626        C  0.34791433  0.63372986  0.80123049     0.16300
O627        O  0.32998745  0.62366208  0.83155643    -0.26000
C628        C  0.30752260  0.64521434  0.82239358     0.06100
C629        C  0.31748465  0.65226921  0.80348499    -0.30900
O630        O  0.41705965  0.59305106  0.77280956    -0.22700
C631        C  0.43847799  0.56993658  0.78145382    -0.02700
C632        C  0.43244756  0.56669445  0.80110422    -0.17200
H633        H  0.38925388  0.58053334  0.83420660     0.20800
H634        H  0.36176647  0.64038435  0.77105244     0.19200
H635        H  0.30346252  0.66740643  0.79259864     0.19100
H636        H  0.44434169  0.54796803  0.81108198     0.15000
C637        C  0.18238620  0.77933120  0.81491927     0.30500
C638        C  0.16355368  0.81152707  0.81669189    -0.35900
C639        C  0.15484449  0.82877139  0.79934575     0.16400
C640        C  0.16366208  0.81491917  0.78156660     0.22300
C641        C  0.18305367  0.78331591  0.77982069    -0.34000
C642        C  0.19204714  0.76642309  0.79707396     0.16300
O643        O  0.19238557  0.75797779  0.82907397    -0.26000
C644        C  0.20904605  0.73154169  0.82003858     0.06100
C645        C  0.20964246  0.73548120  0.80017160    -0.30900
O646        O  0.15027732  0.83343436  0.76722373    -0.22700
C647        C  0.13317908  0.85992421  0.77582997    -0.02700
C648        C  0.13527646  0.85869576  0.79581379    -0.17200
H649        H  0.15562241  0.82197494  0.83054752     0.20800
H650        H  0.18989574  0.77219018  0.76594214     0.19200
H651        H  0.22096107  0.71769954  0.78955069     0.19100
H652        H  0.12231807  0.87587135  0.80615743     0.15000
C653        C  0.40659136  0.30773278  0.78505145     0.30500
C654        C  0.38070237  0.28109985  0.78331723    -0.35900
C655        C  0.38224706  0.25352705  0.79696842     0.16400
C656        C  0.40727540  0.25223280  0.81142066     0.22300
C657        C  0.43285454  0.27914852  0.81335233    -0.34000
C658        C  0.43151149  0.30657633  0.79961017     0.16300
O659        O  0.41159320  0.33473691  0.77312731    -0.26000
C660        C  0.44010339  0.35097278  0.78018185     0.06100
C661        C  0.45348699  0.33474106  0.79666985    -0.30900
O662        O  0.40510207  0.22279615  0.82181006    -0.22700
C663        C  0.37827108  0.20484950  0.81393565    -0.02700
C664        C  0.36301164  0.22304118  0.79843592    -0.17200
H665        H  0.36146298  0.28120637  0.77175281     0.20800
H666        H  0.45312062  0.27814537  0.82437480     0.19200
H667        H  0.47671093  0.34196030  0.80495038     0.19100
H668        H  0.34173061  0.21489430  0.78898901     0.15000
C669        C  0.19664380  0.05206153  0.78755227     0.30500
C670        C  0.21932189  0.04840827  0.80349549    -0.35900
C671        C  0.25019363  0.06935110  0.80315816     0.16400
C672        C  0.25795019  0.09231102  0.78819783     0.22300
C673        C  0.23542412  0.09584795  0.77226891    -0.34000
C674        C  0.20466925  0.07499056  0.77260337     0.16300
O675        O  0.16628621  0.03533034  0.78486766    -0.26000
C676        C  0.15482666  0.04785487  0.76803074     0.06100
C677        C  0.17757364  0.07261679  0.75974814    -0.30900
O678        O  0.28715065  0.11062925  0.79118669    -0.22700
C679        C  0.29865359  0.09929532  0.80825467    -0.02700
C680        C  0.27672214  0.07336281  0.81636945    -0.17200
H681        H  0.21314273  0.03080159  0.81539699     0.20800
H682        H  0.24123010  0.11403014  0.76056176     0.19200
H683        H  0.17466264  0.08663700  0.74620439     0.19100
H684        H  0.27898337  0.06063876  0.83030911     0.15000
C685        C  0.87623483  0.16357045  0.79814305     0.30500
C686        C  0.87926532  0.14652335  0.78027264    -0.35900
C687        C  0.90283462  0.11767791  0.77950616     0.16400
C688        C  0.92173161  0.10590858  0.79531319     0.22300
C689        C  0.91891129  0.12320754  0.81319043    -0.34000
C690        C  0.89570746  0.15251395  0.81387695     0.16300
O691        O  0.85651963  0.19172732  0.80185924    -0.26000
C692        C  0.86362096  0.19927574  0.82017526     0.06100
C693        C  0.88794205  0.17572680  0.82840475    -0.30900
O694        O  0.94304125  0.07905967  0.79112118    -0.22700
C695        C  0.93787981  0.07393438  0.77237219    -0.02700
C696        C  0.91331033  0.09725153  0.76438188    -0.17200
H697        H  0.86481037  0.15562101  0.76772845     0.20800
H698        H  0.93430695  0.11490920  0.82556154     0.19200
H699        H  0.89844508  0.17575646  0.84290427     0.19100
H700        H  0.90518487  0.09946003  0.74947958     0.15000
C701        C  0.72495348  0.29557487  0.80340833     0.30500
C702        C  0.70434470  0.29563292  0.78663009    -0.35900
C703        C  0.67523874  0.31878954  0.78654323     0.16400
C704        C  0.66648123  0.34008099  0.80203272     0.22300
C705        C  0.68708094  0.33985493  0.81892607    -0.34000
C706        C  0.71669909  0.31707769  0.81886934     0.16300
O707        O  0.75452101  0.27757508  0.80598437    -0.26000
C708        C  0.76583973  0.28768448  0.82329126     0.06100
C709        C  0.74322381  0.31231714  0.83202053    -0.30900
O710        O  0.63999994  0.36200428  0.79809633    -0.22700
C711        C  0.63201181  0.35470656  0.77984080    -0.02700
C712        C  0.65301157  0.32803861  0.77196971    -0.17200
H713        H  0.71142419  0.27983577  0.77417825     0.20800
H714        H  0.68135602  0.35736801  0.83090649     0.19200
H715        H  0.74603891  0.32523281  0.84586038     0.19100
H716        H  0.65341766  0.31863377  0.75724329     0.15000
C717        C  0.65923149  0.67139109  0.80802944     0.30500
C718        C  0.63402919  0.64399694  0.80980232    -0.35900
C719        C  0.63324024  0.61894455  0.79479181     0.16400
C720        C  0.65564191  0.62071445  0.77911757     0.22300
C721        C  0.68059860  0.64821875  0.77730043    -0.34000
C722        C  0.68142425  0.67316397  0.79231270     0.16300
O723        O  0.66523515  0.69723199  0.82052359    -0.26000
C724        C  0.69175788  0.71580683  0.81274627     0.06100
C725        C  0.70264080  0.70198208  0.79507503    -0.30900
O726        O  0.65070545  0.59422508  0.76690762    -0.22700
C727        C  0.62474800  0.57531143  0.77485327    -0.02700
C728        C  0.61278351  0.58941194  0.79217923    -0.17200
H729        H  0.61652082  0.64214682  0.82208768     0.20800
H730        H  0.69838373  0.64986093  0.76512431     0.19200
H731        H  0.72318576  0.71142142  0.78550270     0.19100
H732        H  0.59214122  0.57923887  0.80150286     0.15000
C733        C  0.83119276  0.81384282  0.79812232     0.30500
C734        C  0.85517345  0.81086986  0.78284394    -0.35900
C735        C  0.88020785  0.83831432  0.78133847     0.16400
C736        C  0.88163778  0.86662304  0.79404991     0.22300
C737        C  0.85782299  0.86942427  0.80941423    -0.34000
C738        C  0.83269355  0.84203086  0.81085691     0.16300
O739        O  0.80461250  0.79212056  0.80168158    -0.26000
C740        C  0.78872627  0.80643491  0.81692778     0.06100
C741        C  0.80529500  0.83759736  0.82329092    -0.30900
O742        O  0.90660622  0.88974237  0.78963793    -0.22700
C743        C  0.92124250  0.87602929  0.77392065    -0.02700
C744        C  0.90603593  0.84404447  0.76808058    -0.17200
H745        H  0.85393972  0.78908233  0.77263531     0.20800
H746        H  0.85843339  0.89171662  0.81931847     0.19200
H747        H  0.79791967  0.85525143  0.83491743     0.19100
H748        H  0.91281533  0.82768967  0.75578674     0.15000
C749        C  0.43075045  0.09393133  0.88131850     0.30500
C750        C  0.45149044  0.10038458  0.89776762    -0.35900
C751        C  0.46400971  0.07003494  0.90754120     0.16400
C752        C  0.45702890  0.03569767  0.90138112     0.22300
C753        C  0.43630568  0.02926193  0.88493087    -0.34000
C754        C  0.42333783  0.05960518  0.87533738     0.16300
O755        O  0.41589263  0.11834333  0.87021823    -0.26000
C756        C  0.39830758  0.09950350  0.85702737     0.06100
C757        C  0.40208311  0.06272533  0.85953446    -0.30900
O758        O  0.47104949  0.01124605  0.91277334    -0.22700
C759        C  0.48688109  0.03010528  0.92656775    -0.02700
C760        C  0.48352957  0.06685840  0.92400185    -0.17200
H761        H  0.45709317  0.12719860  0.90273553     0.20800
H762        H  0.43030034  0.00244606  0.88010498     0.19200
H763        H  0.39111382  0.04136616  0.85089429     0.19100
H764        H  0.49379270  0.08801389  0.93303776     0.15000
C765        C  0.68147729  0.84324702  0.88790921     0.30500
C766        C  0.68646232  0.86653193  0.90351343    -0.35900
C767        C  0.65568095  0.87660427  0.91340504     0.16400
C768        C  0.62236873  0.86481436  0.90813466     0.22300
C769        C  0.61747290  0.84141902  0.89265558    -0.34000
C770        C  0.64820680  0.83109797  0.88291794     0.16300
O771        O  0.70630181  0.83103293  0.87635205    -0.26000
C772        C  0.68874659  0.81048264  0.86391702     0.06100
C773        C  0.65245265  0.80956337  0.86736490    -0.30900
O774        O  0.59714592  0.87819127  0.91898287    -0.22700
C775        C  0.61448799  0.89851279  0.93149188    -0.02700
C776        C  0.65098904  0.89865137  0.92878688    -0.17200
H777        H  0.71242489  0.87628624  0.90755416     0.20800
H778        H  0.59145815  0.83209336  0.88842559     0.19200
H779        H  0.63196381  0.79604206  0.85925470     0.19100
H780        H  0.67088567  0.91323699  0.93680321     0.15000
C781        C  0.14758013  0.36973550  0.54014820     0.30500
C782        C  0.18239220  0.36109642  0.54546419    -0.35900
C783        C  0.18614845  0.33291580  0.55861640     0.16400
C784        C  0.15768343  0.31421144  0.56592887     0.22300
C785        C  0.12277033  0.32289139  0.56062101    -0.34000
C786        C  0.11896260  0.35141469  0.54761648     0.16300
O787        O  0.13814972  0.39430375  0.52754456    -0.26000
C788        C  0.10297541  0.39210794  0.52710602     0.06100
C789        C  0.08951402  0.36592641  0.53931198    -0.30900
O790        O  0.16741548  0.28934553  0.57835971    -0.22700
C791        C  0.20259978  0.29234230  0.57915440    -0.02700
C792        C  0.21562399  0.31895806  0.56703016    -0.17200
H793        H  0.20499661  0.37538017  0.53974346     0.20800
H794        H  0.10017296  0.30853685  0.56629599     0.19200
H795        H  0.06220953  0.35769370  0.54103714     0.19100
H796        H  0.24279288  0.32734626  0.56495101     0.15000
C797        C  0.89138525  0.57642087  0.56846311     0.30500
C798        C  0.89877714  0.54148667  0.56229716    -0.35900
C799        C  0.92746531  0.53772993  0.54963140     0.16400
C800        C  0.94719854  0.56647662  0.54328518     0.22300
C801        C  0.93984898  0.60138502  0.54949351    -0.34000
C802        C  0.91139652  0.60506152  0.56230859     0.16300
O803        O  0.86621718  0.58592435  0.58055189    -0.26000
C804        C  0.87014013  0.62116051  0.58231795     0.06100
C805        C  0.89790037  0.63450719  0.57117996    -0.30900
O806        O  0.97163151  0.55714319  0.53071898    -0.22700
C807        C  0.96792882  0.52187948  0.52921724    -0.02700
C808        C  0.94081907  0.50829555  0.54062926    -0.17200
H809        H  0.88321964  0.51883008  0.56703625     0.20800
H810        H  0.95514549  0.62410841  0.54459735     0.19200
H811        H  0.90715604  0.66176855  0.56989108     0.19100
H812        H  0.93124775  0.48106472  0.54137596     0.15000
C813        C  0.18978695  0.58521202  0.88360284     0.30500
C814        C  0.19188921  0.55736571  0.89708788    -0.35900
C815        C  0.15944418  0.54393134  0.90373491     0.16400
C816        C  0.12715531  0.55692533  0.89751106     0.22300
C817        C  0.12508177  0.58470200  0.88401990    -0.34000
C818        C  0.15751042  0.59829442  0.87749513     0.16300
O819        O  0.21673675  0.60170771  0.87542672    -0.26000
C820        C  0.20155243  0.62597006  0.86406402     0.06100
C821        C  0.16467147  0.62499505  0.86481824    -0.30900
O822        O  0.10020322  0.54205038  0.90650090    -0.22700
C823        C  0.11543344  0.51928121  0.91863921    -0.02700
C824        C  0.15221941  0.51907385  0.91747356    -0.17200
H825        H  0.21703206  0.54725644  0.90224484     0.20800
H826        H  0.09994914  0.59547004  0.87925082     0.19200
H827        H  0.14575970  0.64084652  0.85679832     0.19100
H828        H  0.17081217  0.50433032  0.92630009     0.15000
C829        C  0.93426408  0.37958630  0.90268928     0.30500
C830        C  0.90092176  0.37756564  0.89376891    -0.35900
C831        C  0.89442725  0.34674998  0.88282376     0.16400
C832        C  0.91906844  0.31989598  0.88069436     0.22300
C833        C  0.95253435  0.32202593  0.88947767    -0.34000
C834        C  0.95901336  0.35276000  0.90048774     0.16300
O835        O  0.94521389  0.40504809  0.91439199    -0.26000
C836        C  0.97751802  0.39454748  0.91959954     0.06100
C837        C  0.98750928  0.36220023  0.91142992    -0.30900
O838        O  0.90731328  0.29343443  0.86991218    -0.22700
C839        C  0.87456636  0.30326657  0.86500178    -0.02700
C840        C  0.86522426  0.33638149  0.87273047    -0.17200
H841        H  0.88120241  0.39829039  0.89550454     0.20800
H842        H  0.97198233  0.30096412  0.88803857     0.19200
H843        H  0.01166467  0.34727497  0.91383253     0.19100
H844        H  0.84078479  0.35113926  0.87112145     0.15000
C845        C  0.61128812  0.06975607  0.53870128     0.30500
C846        C  0.61201293  0.10014004  0.55047788    -0.35900
C847        C  0.64055262  0.10239922  0.56335081     0.16400
C848        C  0.66662016  0.07669391  0.56449944     0.22300
C849        C  0.66610132  0.04648556  0.55261479    -0.34000
C850        C  0.63750537  0.04409618  0.53982181     0.16300
O851        O  0.58661932  0.06167378  0.52598659    -0.26000
C852        C  0.59730884  0.03049123  0.51894635     0.06100
C853        C  0.62874553  0.01824294  0.52695538    -0.30900
O854        O  0.69014121  0.08361060  0.57799309    -0.22700
C855        C  0.67913222  0.11420604  0.58569343    -0.02700
C856        C  0.64832853  0.12717308  0.57700429    -0.17200
H857        H  0.59148715  0.12029197  0.54986624     0.20800
H858        H  0.68625512  0.02598964  0.55350992     0.19200
H859        H  0.64283097  0.99376851  0.52379262     0.19100
H860        H  0.63322475  0.15091502  0.58030335     0.15000
C861        C  0.45997823  0.86873685  0.54539228     0.30500
C862        C  0.46455035  0.84761471  0.56189603    -0.35900
C863        C  0.43361866  0.83914542  0.57207251     0.16400
C864        C  0.40053144  0.85094583  0.56652981     0.22300
C865        C  0.39593723  0.87206858  0.55001594    -0.34000
C866        C  0.42681547  0.88020422  0.53969738     0.16300
O867        O  0.48527817  0.88002119  0.53383433    -0.26000
C868        C  0.46805050  0.89857495  0.52043606     0.06100
C869        C  0.43162657  0.89968971  0.52333842    -0.30900
O870        O  0.37526756  0.83970106  0.57812666    -0.22700
C871        C  0.39227173  0.82013875  0.59122714    -0.02700
C872        C  0.42876027  0.81902143  0.58817135    -0.17200
H873        H  0.49039355  0.83831596  0.56643474     0.20800
H874        H  0.37008385  0.88133734  0.54547869     0.19200
H875        H  0.41182730  0.91344469  0.51483298     0.19100
H876        H  0.44891520  0.80554177  0.59654437     0.15000
C877        C  0.43575215  0.05086493  0.04325260     0.30500
C878        C  0.40259443  0.05311263  0.05232126    -0.35900
C879        C  0.39617695  0.08438407  0.06289733     0.16400
C880        C  0.42060280  0.11163314  0.06435329     0.22300
C881        C  0.45368411  0.10952786  0.05516349    -0.34000
C882        C  0.46023576  0.07814425  0.04471146     0.16300
O883        O  0.44706669  0.02426161  0.03245312    -0.26000
C884        C  0.47934611  0.03446195  0.02707115     0.06100
C885        C  0.48894356  0.06782091  0.03418733    -0.30900
O886        O  0.40952092  0.13790510  0.07545692    -0.22700
C887        C  0.37746861  0.12754131  0.08131359    -0.02700
C888        C  0.36780372  0.09432947  0.07377760    -0.17200
H889        H  0.38323498  0.03185191  0.05129808     0.20800
H890        H  0.47308695  0.13073867  0.05624391     0.19200
H891        H  0.51306703  0.08263960  0.03148846     0.19100
H892        H  0.34388927  0.07907159  0.07621761     0.15000
C893        C  0.42470606  0.33014470  0.14777154     0.30500
C894        C  0.42213609  0.31117220  0.13036541    -0.35900
C895        C  0.39912293  0.28164464  0.13035570     0.16400
C896        C  0.37948981  0.27199395  0.14626546     0.22300
C897        C  0.38203081  0.29086358  0.16363246    -0.34000
C898        C  0.40553201  0.31985993  0.16375781     0.16300
O899        O  0.44671133  0.35673338  0.15149467    -0.26000
C900        C  0.44172406  0.36325372  0.17012366     0.06100
C901        C  0.41651400  0.34108176  0.17849446    -0.30900
O902        O  0.36049394  0.24300633  0.14333765    -0.22700
C903        C  0.36817074  0.23349352  0.12536078    -0.02700
C904        C  0.39216911  0.25663318  0.11654940    -0.17200
H905        H  0.43793829  0.31815407  0.11793008     0.20800
H906        H  0.36760980  0.28271758  0.17636045     0.19200
H907        H  0.40875181  0.33967999  0.19347222     0.19100
H908        H  0.40309725  0.25515310  0.10218336     0.15000
C909        C  0.14028693  0.37638432  0.40958265     0.30500
C910        C  0.17319351  0.36875287  0.40113476    -0.35900
C911        C  0.17218906  0.34779446  0.38440234     0.16400
C912        C  0.14104792  0.33484004  0.37666289     0.22300
C913        C  0.10818716  0.34252474  0.38507250    -0.34000
C914        C  0.10912793  0.36383227  0.40164291     0.16300
O915        O  0.13487636  0.39597440  0.42508671    -0.26000
C916        C  0.09977992  0.39616904  0.42696113     0.06100
C917        C  0.08241240  0.37664690  0.41278845    -0.30900
O918        O  0.14618955  0.31615895  0.36084147    -0.22700
C919        C  0.18108253  0.31739211  0.35823891    -0.02700
C920        C  0.19862388  0.33669682  0.37252805    -0.17200
H921        H  0.19778965  0.37882184  0.40704430     0.20800
H922        H  0.08355906  0.33293957  0.37897275     0.19200
H923        H  0.05420177  0.37260608  0.41100906     0.19100
H924        H  0.22670691  0.34192335  0.37395986     0.15000
C925        C  0.32061371  0.32144938  0.29001675     0.30500
C926        C  0.34370263  0.31850452  0.27433973    -0.35900
C927        C  0.37342063  0.34079197  0.27486549     0.16400
C928        C  0.37979656  0.36433879  0.28977059     0.22300
C929        C  0.35679392  0.36714529  0.30545346    -0.34000
C930        C  0.32712384  0.34485236  0.30492370     0.16300
O931        O  0.29130408  0.30316615  0.29252508    -0.26000
C932        C  0.27874839  0.31495241  0.30925132     0.06100
C933        C  0.30010986  0.34098994  0.31763382    -0.30900
O934        O  0.40891294  0.38290245  0.28725779    -0.22700
C935        C  0.42135870  0.37097883  0.27061400    -0.02700
C936        C  0.40052721  0.34474158  0.26218192    -0.17200
H937        H  0.33881577  0.30018509  0.26258861     0.20800
H938        H  0.36165938  0.38547596  0.31720161     0.19200
H939        H  0.29675207  0.35487132  0.33114843     0.19100
H940        H  0.40459710  0.33094361  0.24868318     0.15000
C941        C  0.67763776  0.07645032  0.37843012     0.30500
C942        C  0.66777860  0.04175700  0.38404998    -0.35900
C943        C  0.64041862  0.03946676  0.39767516     0.16400
C944        C  0.62419564  0.06929430  0.40531839     0.22300
C945        C  0.63401220  0.10385299  0.39969784    -0.34000
C946        C  0.66108989  0.10610178  0.38601018     0.16300
O947        O  0.70219305  0.08497047  0.36572235    -0.26000
C948        C  0.70117650  0.12055765  0.36507310     0.06100
C949        C  0.67612024  0.13506270  0.37750336    -0.30900
O950        O  0.60041113  0.06122057  0.41844986    -0.22700
C951        C  0.60106720  0.02572777  0.41915670    -0.02700
C952        C  0.62541829  0.01064440  0.40653324    -0.17200
H953        H  0.68057151  0.01825373  0.37824934     0.20800
H954        H  0.62151425  0.12737580  0.40566637     0.19200
H955        H  0.66968239  0.16287052  0.37990431     0.19100
H956        H  0.63215201  0.98272080  0.40484020     0.15000
C957        C  0.68556609  0.27269096  0.31763430     0.30500
C958        C  0.66233010  0.30179690  0.31973007    -0.35900
C959        C  0.65715325  0.32292953  0.30321421     0.16400
C960        C  0.67331816  0.31541855  0.28586115     0.22300
C961        C  0.69678819  0.28684127  0.28387347    -0.34000
C962        C  0.70226004  0.26617199  0.30034548     0.16300
O963        O  0.69322312  0.24831160  0.33077456    -0.26000
C964        C  0.71550111  0.22634465  0.32175843     0.06100
C965        C  0.72189035  0.23628966  0.30278394    -0.30900
O966        O  0.66228137  0.33613016  0.27181826    -0.22700
C967        C  0.63921189  0.35775049  0.28024174    -0.02700
C968        C  0.63502889  0.35110198  0.29982227    -0.17200
H969        H  0.64859743  0.30703131  0.33309479     0.20800
H970        H  0.70913901  0.28051577  0.27024600     0.19200
H971        H  0.73754873  0.22269787  0.29200845     0.19100
H972        H  0.61645914  0.36331922  0.30967551     0.15000
C973        C  0.17562514  0.57262719  0.06688955     0.30500
C974        C  0.18163824  0.55393990  0.04967539    -0.35900
C975        C  0.15140823  0.54603063  0.03866089     0.16400
C976        C  0.11768349  0.55568860  0.04430356     0.22300
C977        C  0.11174644  0.57457040  0.06136126    -0.34000
C978        C  0.14187908  0.58260824  0.07226102     0.16300
O979        O  0.19977839  0.58229339  0.07962311    -0.26000
C980        C  0.18118989  0.59898082  0.09319345     0.06100
C981        C  0.14501264  0.59983217  0.08933187    -0.30900
O982        O  0.09304510  0.54397091  0.03248813    -0.22700
C983        C  0.11110976  0.52686469  0.01893602    -0.02700
C984        C  0.14758045  0.52726436  0.02197549    -0.17200
H985        H  0.20791805  0.54573907  0.04531711     0.20800
H986        H  0.08537900  0.58200535  0.06596335     0.19200
H987        H  0.12392572  0.61099825  0.09797732     0.19100
H988        H  0.16797492  0.51429508  0.01357408     0.15000
C989        C  0.37540246  0.57228568  0.17530396     0.30500
C990        C  0.34514219  0.59289817  0.17824255    -0.35900
C991        C  0.32006477  0.59206191  0.16347579     0.16400
C992        C  0.32411633  0.57239598  0.14686350     0.22300
C993        C  0.35429230  0.55107014  0.14403636    -0.34000
C994        C  0.37961336  0.55193139  0.15888667     0.16300
O995        O  0.40253935  0.57011289  0.18710730    -0.26000
C996        C  0.42444799  0.54795144  0.17823778     0.06100
C997        C  0.41166933  0.53558958  0.16065856    -0.30900
O998        O  0.29775099  0.57737380  0.13460850    -0.22700
C999        C  0.27670033  0.60061309  0.14357789    -0.02700
C1000       C  0.28931201  0.61008711  0.16173331    -0.17200
H1001       H  0.34169297  0.60905557  0.19101389     0.20800
H1002       H  0.35808359  0.53552816  0.13107779     0.19200
H1003       H  0.42426045  0.51743062  0.15067044     0.19100
H1004       H  0.27810396  0.62800674  0.17228269     0.15000
C1005       C  0.22753830  0.11233500  0.13182804     0.30500
C1006       C  0.19765752  0.09014742  0.13001005    -0.35900
C1007       C  0.17737580  0.08530638  0.14676685     0.16400
C1008       C  0.18624987  0.10079825  0.16414731     0.22300
C1009       C  0.21557244  0.12348998  0.16585792    -0.34000
C1010       C  0.23551940  0.12859333  0.14910766     0.16300
O1011       O  0.25129026  0.11931144  0.11835387    -0.26000
C1012       C  0.27447490  0.14072631  0.12711198     0.06100
C1013       C  0.26583031  0.14728958  0.14626975    -0.30900
O1014       O  0.16603020  0.08974861  0.17839249    -0.22700
C1015       C  0.14340912  0.06742774  0.17000891    -0.02700
C1016       C  0.14892615  0.06382080  0.15031699    -0.17200
H1017       H  0.19125122  0.07679421  0.11664364     0.20800
H1018       H  0.22300595  0.13541262  0.17946343     0.19200
H1019       H  0.28041074  0.16262502  0.15684062     0.19100
H1020       H  0.13576017  0.04583707  0.14043103     0.15000
C1021       C  0.15110547  0.12427352  0.27588034     0.30500
C1022       C  0.17843570  0.14944550  0.27504768    -0.35900
C1023       C  0.17635480  0.17738331  0.28835317     0.16400
C1024       C  0.14932712  0.18059960  0.30156061     0.22300
C1025       C  0.12182965  0.15544127  0.30236415    -0.34000
C1026       C  0.12395383  0.12733325  0.28908599     0.16300
O1027       O  0.14806731  0.09570833  0.26496442    -0.26000
C1028       C  0.11862904  0.08027198  0.27129759     0.06100
C1029       C  0.10247005  0.09869062  0.28626922    -0.30900
O1030       O  0.15332306  0.20858285  0.31288352    -0.22700
C1031       C  0.18335514  0.22353868  0.30683236    -0.02700
C1032       C  0.19870287  0.20500533  0.29153797    -0.17200
H1033       H  0.20000504  0.14722191  0.26486877     0.20800
H1034       H  0.10053294  0.15741265  0.31272302     0.19200
H1035       H  0.07846973  0.09193252  0.29396728     0.19100
H1036       H  0.22306981  0.21019022  0.28387897     0.15000
C1037       C  0.89991589  0.07703603  0.29474394     0.30500
C1038       C  0.88426511  0.08065079  0.31300010    -0.35900
C1039       C  0.85295297  0.10089873  0.31368423     0.16400
C1040       C  0.83866602  0.11698524  0.29756247     0.22300
C1041       C  0.85414712  0.11329232  0.27939605    -0.34000
C1042       C  0.88493917  0.09264533  0.27866455     0.16300
O1043       O  0.92772974  0.05724322  0.29043775    -0.26000
C1044       C  0.93019590  0.06011794  0.27138301     0.06100
C1045       C  0.90435546  0.08183293  0.26331714    -0.30900
O1046       O  0.80940095  0.13458126  0.30130088    -0.22700
C1047       C  0.80434943  0.12950016  0.32002979    -0.02700
C1048       C  0.83054824  0.10856216  0.32855781    -0.17200
H1049       H  0.89516979  0.06779484  0.32564603     0.20800
H1050       H  0.84247712  0.12501651  0.26662903     0.19200
H1051       H  0.89958615  0.08741736  0.24824334     0.19100
H1052       H  0.83289794  0.10056534  0.34347853     0.15000
C1053       C  0.14969385  0.73794566  0.14784159     0.30500
C1054       C  0.12721651  0.76715608  0.14463267    -0.35900
C1055       C  0.12690933  0.79319339  0.15911626     0.16400
C1056       C  0.14716453  0.79057513  0.17563675     0.22300
C1057       C  0.16895014  0.76102451  0.17902072    -0.34000
C1058       C  0.16943776  0.73520196  0.16449325     0.16300
O1059       O  0.15604740  0.71168154  0.13571187    -0.26000
C1060       C  0.18025839  0.69187837  0.14470710     0.06100
C1061       C  0.18921600  0.70522071  0.16280138    -0.30900
O1062       O  0.14481078  0.81911716  0.18660192    -0.22700
C1063       C  0.12273517  0.84020144  0.17698794    -0.02700
C1064       C  0.11041566  0.82540645  0.15990643    -0.17200
H1065       H  0.11204185  0.77000721  0.13149277     0.20800
H1066       H  0.18538192  0.75895494  0.19175218     0.19200
H1067       H  0.20798883  0.69501777  0.17321048     0.19100
H1068       H  0.09289222  0.83723889  0.14932897     0.15000
C1069       C  0.96023203  0.36031793  0.03882876     0.30500
C1070       C  0.95422401  0.32821936  0.04872455    -0.35900
C1071       C  0.93262322  0.33063664  0.06506726     0.16400
C1072       C  0.91780013  0.36233180  0.07118429     0.22300
C1073       C  0.92388779  0.39442140  0.06133804    -0.34000
C1074       C  0.94558706  0.39206781  0.04506686     0.16300
O1075       O  0.98019530  0.36448925  0.02344049    -0.26000
C1076       C  0.97826899  0.39934567  0.01988291     0.06100
C1077       C  0.95716511  0.41785074  0.03283329    -0.30900
O1078       O  0.89845775  0.35842795  0.08680282    -0.22700
C1079       C  0.90103763  0.32378464  0.09088457    -0.02700
C1080       C  0.92199557  0.30517534  0.07776699    -0.17200
H1081       H  0.96580030  0.30321042  0.04410846     0.20800
H1082       H  0.91268032  0.41950334  0.06610394     0.19200
H1083       H  0.95180774  0.44624426  0.03331400     0.19100
H1084       H  0.92827085  0.27698291  0.07741171     0.15000
C1085       C  0.92108563  0.17879425  0.14153622     0.30500
C1086       C  0.94684848  0.15233283  0.13917761    -0.35900
C1087       C  0.94536884  0.12391082  0.15223641     0.16400
C1088       C  0.92024164  0.12151624  0.16661232     0.22300
C1089       C  0.89432390  0.14796353  0.16890048    -0.34000
C1090       C  0.89590890  0.17649943  0.15584896     0.16300
O1091       O  0.91798481  0.20800170  0.13114668    -0.26000
C1092       C  0.89043024  0.22485464  0.13884633     0.06100
C1093       C  0.87562194  0.20630234  0.15431977    -0.30900
O1094       O  0.92450583  0.09296321  0.17749888    -0.22700
C1095       C  0.95272105  0.07706544  0.16993974    -0.02700
C1096       C  0.96672377  0.09504435  0.15419341    -0.17200
H1097       H  0.96689308  0.15400353  0.12808578     0.20800
H1098       H  0.87462544  0.14662118  0.18018492     0.19200
H1099       H  0.85335078  0.21336221  0.16330656     0.19100
H1100       H  0.98965071  0.08817700  0.14562606     0.15000
C1101       C  0.70649782  0.37873675  0.16161741     0.30500
C1102       C  0.73092120  0.38316032  0.14663138    -0.35900
C1103       C  0.75982610  0.35978383  0.14679382     0.16400
C1104       C  0.76436635  0.33404164  0.16079480     0.22300
C1105       C  0.74005801  0.32974116  0.17585568    -0.34000
C1106       C  0.71099748  0.35291945  0.17562218     0.16300
O1107       O  0.67716502  0.39706158  0.16394572    -0.26000
C1108       C  0.66261873  0.38271222  0.17954985     0.06100
C1109       C  0.68239964  0.35512342  0.18750180    -0.30900
O1110       O  0.79239416  0.31411123  0.15771316    -0.22700
C1111       C  0.80618808  0.32711223  0.14152514    -0.02700
C1112       C  0.78696247  0.35577811  0.13409929    -0.17200
H1113       H  0.72727601  0.40298873  0.13545029     0.20800
H1114       H  0.74321971  0.30927394  0.18674173     0.19200
H1115       H  0.67652707  0.33912126  0.20008974     0.19100
H1116       H  0.79133694  0.37071314  0.12097803     0.15000
C1117       C  0.41399095  0.81987563  0.37954141     0.30500
C1118       C  0.44810586  0.82579100  0.38693602    -0.35900
C1119       C  0.45170352  0.85477980  0.39956741     0.16400
C1120       C  0.42358396  0.87628057  0.40474668     0.22300
C1121       C  0.38950379  0.87049287  0.39726132    -0.34000
C1122       C  0.38600584  0.84163742  0.38452052     0.16300
O1123       O  0.40474557  0.79456924  0.36732109    -0.26000
C1124       C  0.37034061  0.80019403  0.36429385     0.06100
C1125       C  0.35730684  0.82917235  0.37474785    -0.30900
O1126       O  0.43265790  0.90087655  0.41741479    -0.22700
C1127       C  0.46712210  0.89530947  0.42015675    -0.02700
C1128       C  0.48042707  0.86703802  0.40944001    -0.17200
H1129       H  0.47028905  0.80891905  0.38313537     0.20800
H1130       H  0.36724817  0.88718647  0.40117075     0.19200
H1131       H  0.33068667  0.83983278  0.37510509     0.19100
H1132       H  0.50705392  0.85633339  0.40951935     0.15000
C1133       C  0.16911414  0.83944675  0.29646020     0.30500
C1134       C  0.18663528  0.83559933  0.31417018    -0.35900
C1135       C  0.21847291  0.81630629  0.31371376     0.16400
C1136       C  0.23165311  0.80124675  0.29706936     0.22300
C1137       C  0.21425016  0.80512394  0.27942109    -0.34000
C1138       C  0.18285989  0.82486493  0.27981244     0.16300
O1139       O  0.14095324  0.85935778  0.29312679    -0.26000
C1140       C  0.13700195  0.85755132  0.27413497     0.06100
C1141       C  0.16218051  0.83645683  0.26512809    -0.30900
O1142       O  0.26187696  0.78460522  0.29981933    -0.22700
C1143       C  0.26850357  0.78933217  0.31842590    -0.02700
C1144       C  0.24248544  0.80903655  0.32782753    -0.17200
H1145       H  0.17683136  0.84786048  0.32721628     0.20800
H1146       H  0.22503819  0.79445181  0.26619713     0.19200
H1147       H  0.16610075  0.83239217  0.24985179     0.19100
H1148       H  0.24128623  0.81653527  0.34285133     0.15000
C1149       C  0.40956623  0.59262325  0.30038733     0.30500
C1150       C  0.40400065  0.61047463  0.31792966    -0.35900
C1151       C  0.38464321  0.64249620  0.31687366     0.16400
C1152       C  0.37092352  0.65540943  0.29981088     0.22300
C1153       C  0.37620444  0.63751540  0.28236757    -0.34000
C1154       C  0.39621988  0.60610687  0.28335058     0.16300
O1155       O  0.43031679  0.56466388  0.29762434    -0.26000
C1156       C  0.43033661  0.56053708  0.27859138     0.06100
C1157       C  0.40955042  0.58548098  0.26902405    -0.30900
O1158       O  0.35499886  0.68641520  0.30187505    -0.22700
C1159       C  0.35887014  0.69396301  0.32045997    -0.02700
C1160       C  0.37710950  0.66753933  0.33055835    -0.17200
H1161       H  0.41545568  0.60102920  0.33128390     0.20800
H1162       H  0.36677447  0.64825847  0.26882794     0.19200
H1163       H  0.40673160  0.58934364  0.25365179     0.19100
H1164       H  0.38401253  0.66701567  0.34567797     0.15000
C1165       C  0.65350729  0.87894411  0.04484165     0.30500
C1166       C  0.68831584  0.87043832  0.05025504    -0.35900
C1167       C  0.69205640  0.84215010  0.06333525     0.16400
C1168       C  0.66353277  0.82349603  0.07059275     0.22300
C1169       C  0.62863997  0.83216947  0.06528950    -0.34000
C1170       C  0.62484997  0.86056877  0.05222556     0.16300
O1171       O  0.64420756  0.90283094  0.03185662    -0.26000
C1172       C  0.60909596  0.90017208  0.03105960     0.06100
C1173       C  0.59549180  0.87430723  0.04342171    -0.30900
O1174       O  0.67320180  0.79789478  0.08254342    -0.22700
C1175       C  0.70843692  0.80016305  0.08306894    -0.02700
C1176       C  0.72158152  0.82727224  0.07126430    -0.17200
H1177       H  0.71094331  0.88450910  0.04440972     0.20800
H1178       H  0.60608106  0.81749967  0.07077343     0.19200
H1179       H  0.56829430  0.86550886  0.04480678     0.19100
H1180       H  0.74880132  0.83512415  0.06884156     0.15000
C1181       C  0.70589647  0.65981458  0.15056641     0.30500
C1182       C  0.70500729  0.64138098  0.16815788    -0.35900
C1183       C  0.67957249  0.61421056  0.16965943     0.16400
C1184       C  0.65718795  0.60520615  0.15469527     0.22300
C1185       C  0.65801631  0.62375495  0.13713096    -0.34000
C1186       C  0.68291316  0.65146220  0.13578880     0.16300
O1187       O  0.72658684  0.68703785  0.14633948    -0.26000
C1188       C  0.71653800  0.69664537  0.12869443     0.06100
C1189       C  0.68936829  0.67537965  0.12140481    -0.30900
O1190       O  0.63482036  0.57959487  0.15939655    -0.22700
C1191       C  0.64269490  0.57243137  0.17765711    -0.02700
C1192       C  0.67015991  0.59324397  0.18486833    -0.17200
H1193       H  0.72230867  0.64836542  0.18000665     0.20800
H1194       H  0.63988328  0.61762098  0.12551557     0.19200
H1195       H  0.67625425  0.67722063  0.10758168     0.19100
H1196       H  0.68097965  0.59341210  0.19930340     0.15000
C1197       C  0.91690208  0.83272717  0.14364513     0.30500
C1198       C  0.89795416  0.82946943  0.12632808    -0.35900
C1199       C  0.86760418  0.80783060  0.12700127     0.16400
C1200       C  0.85722580  0.79002134  0.14345880     0.22300
C1201       C  0.87623940  0.79301421  0.16067526    -0.34000
C1202       C  0.90601814  0.81520410  0.16012175     0.16300
O1203       O  0.94318408  0.85512463  0.14696972    -0.26000
C1204       C  0.94883011  0.85198103  0.16578867     0.06100
C1205       C  0.92662235  0.82750872  0.17469396    -0.30900
O1206       O  0.82696929  0.77313033  0.14131003    -0.22700
C1207       C  0.81741726  0.78032533  0.12329298    -0.02700
C1208       C  0.84178838  0.80182892  0.11363725    -0.17200
H1209       H  0.90519699  0.84436371  0.11356244     0.20800
H1210       H  0.86729599  0.78048342  0.17385353     0.19200
H1211       H  0.92415016  0.82185171  0.18992037     0.19100
H1212       H  0.84031360  0.81227047  0.09912861     0.15000
C1213       C  0.95820806  0.56490946  0.40888774     0.30500
C1214       C  0.95966047  0.59436143  0.39641466    -0.35900
C1215       C  0.93317589  0.59585254  0.38227672     0.16400
C1216       C  0.90696416  0.57033441  0.38065091     0.22300
C1217       C  0.90534170  0.54105373  0.39318914    -0.34000
C1218       C  0.93189538  0.53941904  0.40723262     0.16300
O1219       O  0.98124734  0.55716540  0.42252350    -0.26000
C1220       C  0.96931971  0.52647168  0.42966751     0.06100
C1221       C  0.93875577  0.51413221  0.42077212    -0.30900
O1222       O  0.88518701  0.57672477  0.36626409    -0.22700
C1223       C  0.89755119  0.60670476  0.35843244    -0.02700
C1224       C  0.92747276  0.61983678  0.36787751    -0.17200
H1225       H  0.98034801  0.61431304  0.39742936     0.20800
H1226       H  0.88512671  0.52067142  0.39188212     0.19200
H1227       H  0.92446360  0.48957171  0.42351903     0.19100
H1228       H  0.94274596  0.64363059  0.36481087     0.15000
C1229       C  0.74896875  0.58202069  0.31150710     0.30500
C1230       C  0.72552758  0.55291535  0.31185290    -0.35900
C1231       C  0.69608564  0.55552785  0.29957782     0.16400
C1232       C  0.69021314  0.58469092  0.28779252     0.22300
C1233       C  0.71330772  0.61389288  0.28768622    -0.34000
C1234       C  0.74261194  0.61127676  0.29992568     0.16300
O1235       O  0.77933420  0.58447908  0.32082004    -0.26000
C1236       C  0.79260300  0.61570800  0.31506195     0.06100
C1237       C  0.77044070  0.63367045  0.30224339    -0.30900
O1238       O  0.66201906  0.58092541  0.27682183    -0.22700
C1239       C  0.64949154  0.54906039  0.28172255    -0.02700
C1240       C  0.66946091  0.53202003  0.29586102    -0.17200
H1241       H  0.73035972  0.52955473  0.32067031     0.20800
H1242       H  0.70920796  0.63667525  0.27833464     0.19200
H1243       H  0.77432124  0.65907549  0.29512169     0.19100
H1244       H  0.66545106  0.50582349  0.30211090     0.15000
C1245       C  0.92925653  0.79018193  0.26935563     0.30500
C1246       C  0.90639988  0.76090711  0.26752641    -0.35900
C1247       C  0.90668776  0.73657190  0.28285342     0.16400
C1248       C  0.92806348  0.74054601  0.29883148     0.22300
C1249       C  0.95131687  0.76954695  0.30054163    -0.34000
C1250       C  0.95090943  0.79400318  0.28526706     0.16300
O1251       O  0.93205794  0.81710587  0.25721158    -0.26000
C1252       C  0.95586259  0.83828166  0.26547709     0.06100
C1253       C  0.96861918  0.82525585  0.28288557    -0.30900
O1254       O  0.92231761  0.71579807  0.31196304    -0.22700
C1255       C  0.89679203  0.69574174  0.30434877    -0.02700
C1256       C  0.88639798  0.70729105  0.28610298    -0.17200
H1257       H  0.88888432  0.75786445  0.25529023     0.20800
H1258       H  0.96778932  0.77333524  0.31313823     0.19200
H1259       H  0.98762395  0.83745393  0.29254067     0.19100
H1260       H  0.86617785  0.69651749  0.27670995     0.15000
loop_ 
_geom_bond_atom_site_label_1 
_geom_bond_atom_site_label_2 
_geom_bond_distance 
_geom_bond_site_symmetry_2 
_ccdc_geom_bond_type 
C1            C2   1.401       .  A
C1            C6   1.401       .  A
C1         C1236   1.480       .  S
C2            C3   1.405       .  A
C2            H7   1.084       .  S
C3            C4   1.407       .  A
C3         C1223   1.479       .  S
C4            C5   1.402       .  A
C4            H8   1.082       .  S
C5            C6   1.400       .  A
C5         C1255   1.478       .  S
C6            H9   1.078       .  S
C10          C11   1.400       .  A
C10          C15   1.405       .  A
C10        C1207   1.476       .  S
C11          C12   1.399       .  A
C11          H16   1.084       .  S
C12          C13   1.405       .  A
C12        C1188   1.479       .  S
C13          C14   1.408       .  A
C13          H17   1.083       .  S
C14          C15   1.409       .  A
C14        C1175   1.485       .  S
C15          H18   1.081       .  S
C19          C20   1.407       .  A
C19          C24   1.399       .  A
C19        C1159   1.477       .  S
C20          C21   1.410       .  A
C20          H25   1.083       .  S
C21          C22   1.407       .  A
C21        C1124   1.485       .  S
C22          C23   1.401       .  A
C22          H26   1.081       .  S
C23          C24   1.398       .  A
C23        C1143   1.471       .  S
C24          H27   1.084       .  S
C28          C29   1.400       .  A
C28          C33   1.402       .  A
C28        C1092   1.479       .  S
C29          C30   1.401       .  A
C29          H34   1.080       .  S
C30          C31   1.406       .  A
C30        C1111   1.479       .  S
C31          C32   1.405       .  A
C31          H35   1.082       .  S
C32          C33   1.404       .  A
C32        C1079   1.479       .  S
C33          H36   1.082       .  S
C37          C74   1.457       .  S
C37        C1140   1.457       .  S
C37          N55   1.345       .  A
N38          N55   1.320       .  A
N38          N60   1.318       .  A
N38         Co75   2.071       .  S
C39          C77   1.456       .  S
C39          H84   1.082       .  S
C39          N64   1.338   1_545  A
H40          C81   1.081       .  S
C41          C45   1.457   1_455  S
C41          H70   1.082       .  S
C41          N65   1.342       .  A
Co42         N60   2.078       .  S
Co42         N50   2.064   1_455  S
Co42         N82   2.065   1_565  S
Co42         N58   2.082   1_455  S
Co42        Cl86   2.460       .  S
N43          C81   1.343       .  A
N43          N50   1.320       .  A
N43         Co44   2.094       .  S
Co44         N47   2.075       .  S
Co44         N64   2.077       .  S
Co44         N51   2.096       .  S
Co44        Cl86   2.433   1_655  S
C45        C1204   1.459       .  S
C45          N83   1.346       .  A
N46          N53   1.320       .  A
N46          N76   1.321       .  A
N46         Co79   2.063       .  S
N47          N65   1.318   1_655  A
N47          N83   1.321       .  A
N48          C77   1.349       .  A
N48          N58   1.325   1_545  A
H49          C74   1.082       .  S
N50          N71   1.321       .  A
N51          N69   1.321   1_665  A
N51          N56   1.326   1_565  A
C52          C80   1.453   1_655  S
C52        C1095   1.461       .  S
C52          N56   1.350       .  A
N53          C68   1.342       .  A
N53         Co75   2.093       .  S
C54          C57   1.452       .  S
C54          H88   1.081       .  S
C54          N82   1.336       .  A
C57        C1028   1.460       .  S
C57          N78   1.350       .  A
N58          N64   1.319       .  A
N59          C85   1.338       .  A
N59          N61   1.319       .  A
N59         Co75   2.077   1_545  S
N60          C74   1.342       .  A
N61          N89   1.326       .  A
N61         Co79   2.086   1_545  S
H62          C85   1.082       .  S
H63          C80   1.081       .  S
N65         Co79   2.079       .  S
N66          N78   1.325       .  A
N66          N82   1.321       .  A
N66         Co75   2.094   1_545  S
C67          C81   1.459       .  S
C67        C1252   1.460       .  S
C67          N71   1.344       .  A
C68          C87   1.457       .  S
C68          H72   1.081       .  S
N69          C80   1.335       .  A
N69         Co79   2.066   1_545  S
C73          C85   1.454       .  S
C73        C1015   1.465       .  S
C73          N89   1.351       .  A
Co75        Cl86   2.432       .  S
N76          C87   1.344       .  A
C77        C1044   1.464       .  S
Co79        Cl86   2.462       .  S
C87        C1063   1.459       .  S
C90          C91   1.403       .  A
C90          C95   1.405       .  A
C90         C999   1.483       .  S
C91          C92   1.398       .  A
C91          H96   1.076       .  S
C92          C93   1.399       .  A
C92        C1060   1.480       .  S
C93          C94   1.406       .  A
C93          H97   1.083       .  S
C94          C95   1.407       .  A
C94         C980   1.477       .  S
C95          H98   1.084       .  S
C99         C100   1.403       .  A
C99         C104   1.398       .  A
C99        C1047   1.473       .  S
C100        C101   1.408       .  A
C100        H105   1.084       .  S
C101        C102   1.410       .  A
C101        C948   1.480       .  S
C102        C103   1.401       .  A
C102        H106   1.083       .  S
C103        C104   1.401       .  A
C103        C964   1.479       .  S
C104        H107   1.083       .  S
C108        C109   1.407       .  A
C108        C113   1.404       .  A
C108        C919   1.479       .  S
C109        C110   1.406       .  A
C109        H114   1.083       .  S
C110        C111   1.401       .  A
C110       C1031   1.483       .  S
C111        C112   1.397       .  A
C111        H115   1.079       .  S
C112        C113   1.402       .  A
C112        C932   1.476       .  S
C113        H116   1.080       .  S
C117        C118   1.414       .  A
C117        C122   1.411       .  A
C117        C887   1.492       .  S
C118        C119   1.406       .  A
C118        H123   1.081       .  S
C119        C120   1.401       .  A
C119       C1012   1.483       .  S
C120        C121   1.398       .  A
C120        H124   1.083       .  S
C121        C122   1.406       .  A
C121        C903   1.482       .  S
C122        H125   1.083       .  S
C126        C163   1.451       .  S
C126       C1239   1.462       .  S
C126        N144   1.352       .  A
N127        N144   1.326       .  A
N127        N149   1.321       .  A
N127       Co164   2.101       .  S
C128        C166   1.456       .  S
C128        H173   1.081       .  S
C128        N153   1.340       .  A
H129        C170   1.082       .  S
C130        C134   1.448       .  S
C130        H159   1.082       .  S
C130        N154   1.334       .  A
Co131       N149   2.063       .  S
Co131       N139   2.085       .  S
Co131       N171   2.090       .  S
Co131       N147   2.061       .  S
Co131      Cl175   2.463       .  S
N132        C170   1.336       .  A
N132        N139   1.319       .  A
N132       Co133   2.071       .  S
Co133       N136   2.094       .  S
Co133       N153   2.084       .  S
Co133       N140   2.076       .  S
Co133      Cl175   2.435       .  S
C134       C1108   1.458       .  S
C134        N172   1.351       .  A
N135        N142   1.320       .  A
N135        N165   1.325       .  A
N135       Co168   2.091       .  S
N136        N154   1.320       .  A
N136        N172   1.327       .  A
N137        C166   1.343       .  A
N137        N147   1.319       .  A
H138        C163   1.081       .  S
N139        N160   1.326       .  A
N140        N158   1.319       .  A
N140        N145   1.323       .  A
C141        C169   1.463       .  S
C141        C900   1.468       .  S
C141        N145   1.346       .  A
N142        C157   1.341       .  A
N142       Co164   2.079       .  S
C143        C146   1.462       .  S
C143        H177   1.081       .  S
C143        N171   1.345       .  A
C146       C1156   1.467       .  S
C146        N167   1.347       .  A
N147        N153   1.321       .  A
N148        C174   1.341       .  A
N148        N150   1.321       .  A
N148       Co164   2.098       .  S
N149        C163   1.336       .  A
N150        N178   1.321       .  A
N150       Co168   2.059       .  S
H151        C174   1.081       .  S
H152        C169   1.081       .  S
N154       Co168   2.060       .  S
N155        N167   1.322       .  A
N155        N171   1.319       .  A
N155       Co164   2.077       .  S
C156        C170   1.451       .  S
C156        C967   1.460       .  S
C156        N160   1.350       .  A
C157        C176   1.457       .  S
C157        H161   1.082       .  S
N158        C169   1.346       .  A
N158       Co168   2.095       .  S
C162        C174   1.459       .  S
C162        C996   1.458       .  S
C162        N178   1.343       .  A
Co164      Cl175   2.435       .  S
N165        C176   1.350       .  A
C166        C935   1.452       .  S
Co168      Cl175   2.463       .  S
C176       C1191   1.465       .  S
N179        C184   1.352       .  A
N179        C183   1.352       .  A
N179        H211   1.030       .  S
N180        C187   1.352       .  A
N180        C188   1.351       .  A
N181        C186   1.354       .  A
N181        C185   1.354       .  A
N181        H212   1.030       .  S
N182        C189   1.353       .  A
N182        C190   1.352       .  A
C183        C191   1.387       .  A
C183        C199   1.415   1_565  A
C184        C200   1.416       .  A
C184        C192   1.388       .  A
C185        C193   1.388       .  A
C185        C202   1.421   1_565  A
C186        C201   1.420       .  A
C186        C194   1.388       .  A
C187        C199   1.414       .  A
C187        C195   1.386       .  A
C188        C202   1.418       .  A
C188        C196   1.389       .  A
C189        C197   1.386       .  A
C189        C200   1.417       .  A
C190        C198   1.387       .  A
C190        C201   1.417       .  A
C191        C192   1.375       .  A
C191        H203   1.082   1_565  S
C192        H204   1.082       .  S
C193        C194   1.378       .  A
C193        H205   1.082       .  S
C194        H206   1.082       .  S
C195        C196   1.369       .  A
C195        H207   1.082       .  S
C196        H208   1.082       .  S
C197        C198   1.372       .  A
C197        H209   1.082       .  S
C198        H210   1.082       .  S
C199        C852   1.475       .  S
C200        C868   1.480       .  S
C201       C1127   1.481       .  S
C202        C951   1.481       .  S
N213        C218   1.351   1_556  A
N213        C217   1.352   1_556  A
N213        H245   1.041       .  S
N214        C221   1.353       .  A
N214        C222   1.351       .  A
N215        C220   1.353       .  A
N215        C219   1.351       .  A
N215        H246   1.039       .  S
N216        C223   1.351   1_455  A
N216        C224   1.352   1_455  A
C217        C225   1.387       .  A
C217        C233   1.414       .  A
C218        C234   1.416   1_455  A
C218        C226   1.389       .  A
C219        C227   1.388       .  A
C219        C236   1.418       .  A
C220        C235   1.419   1_455  A
C220        C228   1.388       .  A
C221        C233   1.412   1_556  A
C221        C229   1.384       .  A
C222        C236   1.417       .  A
C222        C230   1.389       .  A
C223        C231   1.386       .  A
C223        C234   1.414   1_556  A
C224        C232   1.387       .  A
C224        C235   1.417       .  A
C225        C226   1.372       .  A
C225        H237   1.082       .  S
C226        H238   1.082       .  S
C227        C228   1.377       .  A
C227        H239   1.082       .  S
C228        H240   1.082       .  S
C229        C230   1.370       .  A
C229        H241   1.082       .  S
C230        H242   1.082       .  S
C231        C232   1.372       .  A
C231        H243   1.082       .  S
C232        H244   1.082       .  S
C233        C983   1.481       .  S
C234       C1076   1.476       .  S
C235        C836   1.482       .  S
C236        C823   1.478       .  S
N247        C252   1.353       .  A
N247        C251   1.352       .  A
N247        H279   1.036       .  S
N248        C255   1.351       .  A
N248        C256   1.351       .  A
N249        C254   1.354       .  A
N249        C253   1.356       .  A
N249        H280   1.034       .  S
N250        C257   1.354       .  A
N250        C258   1.352       .  A
C251        C259   1.388       .  A
C251        C267   1.414   1_455  A
C252        C268   1.415       .  A
C252        C260   1.387       .  A
C253        C261   1.387       .  A
C253        C270   1.421   1_455  A
C254        C269   1.421       .  A
C254        C262   1.388       .  A
C255        C267   1.412       .  A
C255        C263   1.386       .  A
C256        C270   1.415       .  A
C256        C264   1.388       .  A
C257        C265   1.385       .  A
C257        C268   1.414       .  A
C258        C266   1.389       .  A
C258        C269   1.419       .  A
C259        C260   1.374       .  A
C259        H271   1.082       .  S
C260        H272   1.082       .  S
C261        C262   1.379       .  A
C261        H273   1.082       .  S
C262        H274   1.082       .  S
C263        C264   1.371       .  A
C263        H275   1.082       .  S
C264        H276   1.082       .  S
C265        C266   1.370       .  A
C265        H277   1.082       .  S
C266        H278   1.082       .  S
C267       C1220   1.473       .  S
C268        C916   1.484       .  S
C269        C788   1.482       .  S
C270        C807   1.483       .  S
N281        C286   1.352       .  A
N281        C285   1.354       .  A
N281        H313   1.036       .  S
N282        C289   1.355       .  A
N282        C290   1.353       .  A
N283        C288   1.356       .  A
N283        C287   1.354       .  A
N283        H314   1.035   1_554  S
N284        C291   1.351       .  A
N284        C292   1.351       .  A
C285        C293   1.387       .  A
C285        C301   1.414   1_565  A
C286        C302   1.414       .  A
C286        C294   1.387       .  A
C287        C295   1.388       .  A
C287        C304   1.419   1_565  A
C288        C303   1.418       .  A
C288        C296   1.386       .  A
C289        C301   1.417       .  A
C289        C297   1.385       .  A
C290        C304   1.417   1_556  A
C290        C298   1.387       .  A
C291        C299   1.386       .  A
C291        C302   1.411       .  A
C292        C300   1.388       .  A
C292        C303   1.413   1_556  A
C293        C294   1.375       .  A
C293        H305   1.082   1_565  S
C294        H306   1.083       .  S
C295        C296   1.379       .  A
C295        H307   1.082   1_565  S
C296        H308   1.082       .  S
C297        C298   1.372       .  A
C297        H309   1.082       .  S
C298        H310   1.082       .  S
C299        C300   1.371       .  A
C299        H311   1.082       .  S
C300        H312   1.082   1_556  S
C301        C759   1.488       .  S
C302        C775   1.475       .  S
C303       C1172   1.482       .  S
C304        C884   1.482       .  S
C315        C316   1.405       .  A
C315        C320   1.405       .  A
C315        C724   1.485       .  S
C316        C317   1.407       .  A
C316        H321   1.082       .  S
C317        C318   1.401       .  A
C317        C772   1.478       .  S
C318        C319   1.403       .  A
C318        H322   1.081       .  S
C319        C320   1.402       .  A
C319        C740   1.480       .  S
C320        H323   1.080       .  S
C324        C325   1.403       .  A
C324        C329   1.407       .  A
C324        C708   1.484       .  S
C325        C326   1.401       .  A
C325        H330   1.084       .  S
C326        C327   1.404       .  A
C326        C692   1.480       .  S
C327        C328   1.408       .  A
C327        H331   1.083       .  S
C328        C329   1.412       .  A
C328        C839   1.490       .  S
C329        H332   1.079       .  S
C333        C334   1.407       .  A
C333        C338   1.410       .  A
C333        C756   1.485       .  S
C334        C335   1.405       .  A
C334        H339   1.084       .  S
C335        C336   1.402       .  A
C335        C663   1.486       .  S
C336        C337   1.400       .  A
C336        H340   1.080       .  S
C337        C338   1.407       .  A
C337        C679   1.481       .  S
C338        H341   1.082       .  S
C342        C343   1.395       .  A
C342        C347   1.399       .  A
C342        C644   1.469       .  S
C343        C344   1.398       .  A
C343        H348   1.083       .  S
C344        C345   1.403       .  A
C344        C628   1.476       .  S
C345        C346   1.408       .  A
C345        H349   1.084       .  S
C346        C347   1.409       .  A
C346        C820   1.479       .  S
C347        H350   1.083       .  S
C351        C352   1.412       .  A
C351        C356   1.410       .  A
C351        C791   1.484       .  S
C352        C353   1.403       .  A
C352        H357   1.082       .  S
C353        C354   1.395       .  A
C353        C612   1.474       .  S
C354        C355   1.398       .  A
C354        H358   1.084       .  S
C355        C356   1.405       .  A
C355        C599   1.476       .  S
C356        H359   1.084       .  S
C360        C361   1.402       .  A
C360        C365   1.401       .  A
C360        C567   1.478       .  S
C361        C362   1.405       .  A
C361        H366   1.080       .  S
C362        C363   1.405       .  A
C362        C855   1.483       .  S
C363        C364   1.405       .  A
C363        H367   1.081       .  S
C364        C365   1.400       .  A
C364        C580   1.480       .  S
C365        H368   1.080       .  S
C369        C406   1.457       .  S
C369        C631   1.458       .  S
C369        N387   1.346       .  A
N370        N387   1.322       .  A
N370        N392   1.319       .  A
N370       Co407   2.075       .  S
C371        C409   1.456       .  S
C371        H416   1.082       .  S
C371        N396   1.338       .  A
H372        C413   1.081       .  S
C373        C377   1.462       .  S
C373        H402   1.082       .  S
C373        N397   1.345       .  A
Co374       N392   2.079       .  S
Co374       N382   2.068       .  S
Co374       N414   2.064       .  S
Co374       N390   2.087       .  S
Co374      Cl418   2.461       .  S
N375        C413   1.344       .  A
N375        N382   1.320       .  A
N375       Co376   2.097       .  S
Co376       N379   2.076       .  S
Co376       N396   2.079       .  S
Co376       N383   2.092       .  S
Co376      Cl418   2.433       .  S
C377        C551   1.465       .  S
C377        N415   1.346       .  A
N378        N385   1.321       .  A
N378        N408   1.322       .  A
N378       Co411   2.064       .  S
N379        N397   1.319       .  A
N379        N415   1.321       .  A
N380        C409   1.351       .  A
N380        N390   1.327       .  A
H381        C406   1.081       .  S
N382        N403   1.322       .  A
N383        N401   1.320       .  A
N383        N388   1.324       .  A
C384        C412   1.451       .  S
C384        C564   1.457       .  S
C384        N388   1.349       .  A
N385        C400   1.341       .  A
N385       Co407   2.093       .  S
C386        C389   1.451       .  S
C386        H420   1.081       .  S
C386        N414   1.334       .  A
C389        C660   1.465       .  S
C389        N410   1.353       .  A
N390        N396   1.319       .  A
N391        C417   1.340       .  A
N391        N393   1.319       .  A
N391       Co407   2.078       .  S
N392        C406   1.341       .  A
N393        N421   1.325       .  A
N393       Co411   2.085       .  S
H394        C417   1.082       .  S
H395        C412   1.081       .  S
N397       Co411   2.087       .  S
N398        N410   1.328       .  A
N398        N414   1.321       .  A
N398       Co407   2.101       .  S
C399        C413   1.461       .  S
C399        C727   1.465       .  S
C399        N403   1.345       .  A
C400        C419   1.457       .  S
C400        H404   1.081       .  S
N401        C412   1.335       .  A
N401       Co411   2.061       .  S
C405        C417   1.458       .  S
C405        C615   1.464       .  S
C405        N421   1.348       .  A
Co407      Cl418   2.439       .  S
N408        C419   1.345       .  A
C409        C711   1.467       .  S
Co411      Cl418   2.461       .  S
C419        C532   1.458       .  S
C422        C423   1.401       .  A
C422        C427   1.404       .  A
C422        C519   1.478       .  S
C423        C424   1.398       .  A
C423        H428   1.084       .  S
C424        C425   1.401       .  A
C424        C548   1.473       .  S
C425        C426   1.409       .  A
C425        H429   1.084       .  S
C426        C427   1.412       .  A
C426        C804   1.484       .  S
C427        H430   1.082       .  S
C431        C432   1.405       .  A
C431        C436   1.399       .  A
C431        C500   1.479       .  S
C432        C433   1.406       .  A
C432        H437   1.081       .  S
C433        C434   1.407       .  A
C433        C871   1.481       .  S
C434        C435   1.402       .  A
C434        H438   1.082       .  S
C435        C436   1.399       .  A
C435        C535   1.477       .  S
C436        H439   1.081       .  S
C440        C477   1.452       .  S
C440        C743   1.458       .  S
C440        N458   1.348       .  A
N441        N458   1.324       .  A
N441        N463   1.321       .  A
N441       Co478   2.085   1_655  S
C442        C480   1.461       .  S
C442        H487   1.081       .  S
C442        N467   1.342       .  A
H443        C484   1.082       .  S
C444        C448   1.450       .  S
C444        H473   1.082   1_545  S
C444        N468   1.336   1_545  A
Co445       N463   2.070   1_455  S
Co445       N453   2.088   1_465  S
Co445       N485   2.083       .  S
Co445       N461   2.071   1_565  S
Co445      Cl489   2.464       .  S
N446        C484   1.338       .  A
N446        N453   1.319       .  A
N446       Co447   2.075   1_655  S
Co447       N450   2.094   1_455  S
Co447       N467   2.096       .  S
Co447       N454   2.076       .  S
Co447      Cl489   2.433   1_545  S
C448        C583   1.460       .  S
C448        N486   1.350       .  A
N449        N456   1.319       .  A
N449        N479   1.327       .  A
N449       Co482   2.085   1_655  S
N450        N468   1.321   1_545  A
N450        N486   1.326       .  A
N451        C480   1.345       .  A
N451        N461   1.323       .  A
H452        C477   1.082       .  S
N453        N474   1.326       .  A
N454        N472   1.319   1_545  A
N454        N459   1.321       .  A
C455        C483   1.460       .  S
C455        C596   1.462       .  S
C455        N459   1.346       .  A
N456        C471   1.336       .  A
N456       Co478   2.073   1_655  S
C457        C460   1.458       .  S
C457        H491   1.081       .  S
C457        N485   1.342       .  A
C460        C647   1.461       .  S
C460        N481   1.346       .  A
N461        N467   1.321       .  A
N462        C488   1.340       .  A
N462        N464   1.321       .  A
N462       Co478   2.086       .  S
N463        C477   1.337       .  A
N464        N492   1.322       .  A
N464       Co482   2.068       .  S
H465        C488   1.081       .  S
H466        C483   1.082   1_565  S
N468       Co482   2.067   1_655  S
N469        N481   1.322       .  A
N469        N485   1.319       .  A
N469       Co478   2.074       .  S
C470        C484   1.455       .  S
C470        C695   1.466       .  S
C470        N474   1.351       .  A
C471        C490   1.453       .  S
C471        H475   1.082       .  S
N472        C483   1.344   1_565  A
N472       Co482   2.084       .  S
C476        C488   1.458       .  S
C476        C503   1.458       .  S
C476        N492   1.345       .  A
Co478      Cl489   2.431       .  S
N479        C490   1.350       .  A
C480        C676   1.465       .  S
Co482      Cl489   2.465       .  S
C490        C516   1.463       .  S
C493        C498   1.379       .  A
C493        C494   1.400       .  A
C493        O499   1.312       .  A
C494        C495   1.398       .  A
C494        H505   1.082       .  S
C495        C504   1.358       .  A
C495        C496   1.381       .  A
C496        C497   1.402       .  A
C496        O502   1.315       .  A
C497        C498   1.400       .  A
C497        H506   1.082       .  S
C498        C501   1.361       .  A
O499        C500   1.331       .  A
C500        C501   1.394       .  A
C501        H507   1.081       .  S
O502        C503   1.329       .  A
C503        C504   1.388       .  A
C504        H508   1.082       .  S
C509        C514   1.381       .  A
C509        C510   1.397       .  A
C509        O515   1.313       .  A
C510        C511   1.397       .  A
C510        H521   1.082       .  S
C511        C520   1.353       .  A
C511        C512   1.380       .  A
C512        C513   1.407       .  A
C512        O518   1.322       .  A
C513        C514   1.406       .  A
C513        H522   1.082       .  S
C514        C517   1.366       .  A
O515        C516   1.327       .  A
C516        C517   1.392       .  A
C517        H523   1.082       .  S
O518        C519   1.333       .  A
C519        C520   1.391       .  A
C520        H524   1.082       .  S
C525        C530   1.382       .  A
C525        C526   1.398       .  A
C525        O531   1.315       .  A
C526        C527   1.398       .  A
C526        H537   1.082       .  S
C527        C536   1.354       .  A
C527        C528   1.380       .  A
C528        C529   1.401       .  A
C528        O534   1.318       .  A
C529        C530   1.401       .  A
C529        H538   1.082       .  S
C530        C533   1.359       .  A
O531        C532   1.327       .  A
C532        C533   1.390       .  A
C533        H539   1.083       .  S
O534        C535   1.331       .  A
C535        C536   1.394       .  A
C536        H540   1.082       .  S
C541        C546   1.380       .  A
C541        C542   1.408       .  A
C541        O547   1.323       .  A
C542        C543   1.408       .  A
C542        H553   1.082       .  S
C543        C552   1.368       .  A
C543        C544   1.381       .  A
C544        C545   1.397       .  A
C544        O550   1.314       .  A
C545        C546   1.396       .  A
C545        H554   1.082       .  S
C546        C549   1.354       .  A
O547        C548   1.333       .  A
C548        C549   1.388       .  A
C549        H555   1.083       .  S
O550        C551   1.327       .  A
C551        C552   1.393       .  A
C552        H556   1.082       .  S
C557        C562   1.381       .  A
C557        C558   1.399       .  A
C557        O563   1.316       .  A
C558        C559   1.399       .  A
C558        H569   1.082       .  S
C559        C568   1.356       .  A
C559        C560   1.379       .  A
C560        C561   1.399       .  A
C560        O566   1.315       .  A
C561        C562   1.399       .  A
C561        H570   1.082       .  S
C562        C565   1.356       .  A
O563        C564   1.327       .  A
C564        C565   1.389       .  A
C565        H571   1.082       .  S
O566        C567   1.331       .  A
C567        C568   1.395       .  A
C568        H572   1.081       .  S
C573        C578   1.379       .  A
C573        C574   1.402       .  A
C573        O579   1.314       .  A
C574        C575   1.400       .  A
C574        H585   1.082       .  S
C575        C584   1.361       .  A
C575        C576   1.381       .  A
C576        C577   1.401       .  A
C576        O582   1.314       .  A
C577        C578   1.399       .  A
C577        H586   1.082       .  S
C578        C581   1.360       .  A
O579        C580   1.332       .  A
C580        C581   1.394       .  A
C581        H587   1.081       .  S
O582        C583   1.329       .  A
C583        C584   1.388       .  A
C584        H588   1.082       .  S
C589        C594   1.381       .  A
C589        C590   1.397       .  A
C589        O595   1.314       .  A
C590        C591   1.397       .  A
C590        H601   1.083       .  S
C591        C600   1.352       .  A
C591        C592   1.380       .  A
C592        C593   1.406       .  A
C592        O598   1.323       .  A
C593        C594   1.406       .  A
C593        H602   1.082       .  S
C594        C597   1.365       .  A
O595        C596   1.327       .  A
C596        C597   1.392       .  A
C597        H603   1.082       .  S
O598        C599   1.332       .  A
C599        C600   1.390       .  A
C600        H604   1.083       .  S
C605        C610   1.380       .  A
C605        C606   1.400       .  A
C605        O611   1.313       .  A
C606        C607   1.398       .  A
C606        H617   1.082       .  S
C607        C616   1.359       .  A
C607        C608   1.381       .  A
C608        C609   1.406       .  A
C608        O614   1.319       .  A
C609        C610   1.404       .  A
C609        H618   1.082       .  S
C610        C613   1.366       .  A
O611        C612   1.330       .  A
C612        C613   1.393       .  A
C613        H619   1.082       .  S
O614        C615   1.331       .  A
C615        C616   1.388       .  A
C616        H620   1.083       .  S
C621        C626   1.380       .  A
C621        C622   1.403       .  A
C621        O627   1.321       .  A
C622        C623   1.404       .  A
C622        H633   1.082       .  S
C623        C632   1.361       .  A
C623        C624   1.382       .  A
C624        C625   1.397       .  A
C624        O630   1.315       .  A
C625        C626   1.397       .  A
C625        H634   1.083       .  S
C626        C629   1.352       .  A
O627        C628   1.332       .  A
C628        C629   1.392       .  A
C629        H635   1.082       .  S
O630        C631   1.327       .  A
C631        C632   1.390       .  A
C632        H636   1.082       .  S
C637        C642   1.381       .  A
C637        C638   1.405       .  A
C637        O643   1.321       .  A
C638        C639   1.405       .  A
C638        H649   1.082       .  S
C639        C648   1.364       .  A
C639        C640   1.381       .  A
C640        C641   1.397       .  A
C640        O646   1.314       .  A
C641        C642   1.396       .  A
C641        H650   1.082       .  S
C642        C645   1.352       .  A
O643        C644   1.331       .  A
C644        C645   1.388       .  A
C645        H651   1.083       .  S
O646        C647   1.327       .  A
C647        C648   1.391       .  A
C648        H652   1.082       .  S
C653        C658   1.381       .  A
C653        C654   1.401       .  A
C653        O659   1.320       .  A
C654        C655   1.402       .  A
C654        H665   1.082       .  S
C655        C664   1.356       .  A
C655        C656   1.379       .  A
C656        C657   1.401       .  A
C656        O662   1.319       .  A
C657        C658   1.402       .  A
C657        H666   1.082       .  S
C658        C661   1.356       .  A
O659        C660   1.329       .  A
C660        C661   1.391       .  A
C661        H667   1.082       .  S
O662        C663   1.332       .  A
C663        C664   1.397       .  A
C664        H668   1.081       .  S
C669        C674   1.380       .  A
C669        C670   1.406       .  A
C669        O675   1.319       .  A
C670        C671   1.404       .  A
C670        H681   1.082       .  S
C671        C680   1.366       .  A
C671        C672   1.379       .  A
C672        C673   1.401       .  A
C672        O678   1.314       .  A
C673        C674   1.399       .  A
C673        H682   1.082       .  S
C674        C677   1.360       .  A
O675        C676   1.332       .  A
C676        C677   1.388       .  A
C677        H683   1.082       .  S
O678        C679   1.331       .  A
C679        C680   1.394       .  A
C680        H684   1.082       .  S
C685        C690   1.380       .  A
C685        C686   1.402       .  A
C685        O691   1.316       .  A
C686        C687   1.400       .  A
C686        H697   1.082       .  S
C687        C696   1.360       .  A
C687        C688   1.381       .  A
C688        C689   1.406       .  A
C688        O694   1.321       .  A
C689        C690   1.405       .  A
C689        H698   1.082       .  S
C690        C693   1.365       .  A
O691        C692   1.331       .  A
C692        C693   1.395       .  A
C693        H699   1.082       .  S
O694        C695   1.331       .  A
C695        C696   1.389       .  A
C696        H700   1.083       .  S
C701        C706   1.379       .  A
C701        C702   1.401       .  A
C701        O707   1.316       .  A
C702        C703   1.400       .  A
C702        H713   1.082       .  S
C703        C712   1.359       .  A
C703        C704   1.381       .  A
C704        C705   1.407       .  A
C704        O710   1.322       .  A
C705        C706   1.406       .  A
C705        H714   1.082       .  S
C706        C709   1.366       .  A
O707        C708   1.331       .  A
C708        C709   1.397       .  A
C709        H715   1.082       .  S
O710        C711   1.332       .  A
C711        C712   1.388       .  A
C712        H716   1.083       .  S
C717        C722   1.379       .  A
C717        C718   1.403       .  A
C717        O723   1.320       .  A
C718        C719   1.404       .  A
C718        H729   1.082       .  S
C719        C728   1.360       .  A
C719        C720   1.381       .  A
C720        C721   1.401       .  A
C720        O726   1.319       .  A
C721        C722   1.401       .  A
C721        H730   1.082       .  S
C722        C725   1.357       .  A
O723        C724   1.333       .  A
C724        C725   1.395       .  A
C725        H731   1.081       .  S
O726        C727   1.329       .  A
C727        C728   1.391       .  A
C728        H732   1.083       .  S
C733        C738   1.379       .  A
C733        C734   1.401       .  A
C733        O739   1.314       .  A
C734        C735   1.399       .  A
C734        H745   1.082       .  S
C735        C744   1.359       .  A
C735        C736   1.381       .  A
C736        C737   1.401       .  A
C736        O742   1.315       .  A
C737        C738   1.400       .  A
C737        H746   1.082       .  S
C738        C741   1.358       .  A
O739        C740   1.331       .  A
C740        C741   1.395       .  A
C741        H747   1.081       .  S
O742        C743   1.328       .  A
C743        C744   1.388       .  A
C744        H748   1.083       .  S
C749        C754   1.379       .  A
C749        C750   1.406       .  A
C749        O755   1.320       .  A
C750        C751   1.404       .  A
C750        H761   1.082       .  S
C751        C760   1.365       .  A
C751        C752   1.380       .  A
C752        C753   1.405       .  A
C752        O758   1.320       .  A
C753        C754   1.404       .  A
C753        H762   1.082       .  S
C754        C757   1.364       .  A
O755        C756   1.333       .  A
C756        C757   1.395       .  A
C757        H763   1.082       .  S
O758        C759   1.332       .  A
C759        C760   1.393       .  A
C760        H764   1.082       .  S
C765        C770   1.379       .  A
C765        C766   1.404       .  A
C765        O771   1.317       .  A
C766        C767   1.403       .  A
C766        H777   1.082       .  S
C767        C776   1.363       .  A
C767        C768   1.381       .  A
C768        C769   1.400       .  A
C768        O774   1.315       .  A
C769        C770   1.399       .  A
C769        H778   1.082       .  S
C770        C773   1.359       .  A
O771        C772   1.333       .  A
C772        C773   1.391       .  A
C773        H779   1.082       .  S
O774        C775   1.327       .  A
C775        C776   1.391       .  A
C776        H780   1.082       .  S
C781        C786   1.380       .  A
C781        C782   1.402       .  A
C781        O787   1.318       .  A
C782        C783   1.402       .  A
C782        H793   1.082       .  S
C783        C792   1.360       .  A
C783        C784   1.379       .  A
C784        C785   1.406       .  A
C784        O790   1.321       .  A
C785        C786   1.405       .  A
C785        H794   1.082       .  S
C786        C789   1.364       .  A
O787        C788   1.330       .  A
C788        C789   1.391       .  A
C789        H795   1.082       .  S
O790        C791   1.334       .  A
C791        C792   1.393       .  A
C792        H796   1.082       .  S
C797        C802   1.379       .  A
C797        C798   1.405       .  A
C797        O803   1.318       .  A
C798        C799   1.403       .  A
C798        H809   1.082       .  S
C799        C808   1.365       .  A
C799        C800   1.380       .  A
C800        C801   1.404       .  A
C800        O806   1.318       .  A
C801        C802   1.403       .  A
C801        H810   1.082       .  S
C802        C805   1.363       .  A
O803        C804   1.333       .  A
C804        C805   1.395       .  A
C805        H811   1.082       .  S
O806        C807   1.331       .  A
C807        C808   1.391       .  A
C808        H812   1.082       .  S
C813        C818   1.379       .  A
C813        C814   1.403       .  A
C813        O819   1.318       .  A
C814        C815   1.402       .  A
C814        H825   1.082       .  S
C815        C824   1.360       .  A
C815        C816   1.381       .  A
C816        C817   1.401       .  A
C816        O822   1.317       .  A
C817        C818   1.401       .  A
C817        H826   1.082       .  S
C818        C821   1.358       .  A
O819        C820   1.332       .  A
C820        C821   1.394       .  A
C821        H827   1.082       .  S
O822        C823   1.329       .  A
C823        C824   1.391       .  A
C824        H828   1.082       .  S
C829        C834   1.381       .  A
C829        C830   1.404       .  A
C829        O835   1.319       .  A
C830        C831   1.403       .  A
C830        H841   1.082       .  S
C831        C840   1.362       .  A
C831        C832   1.378       .  A
C832        C833   1.404       .  A
C832        O838   1.319       .  A
C833        C834   1.403       .  A
C833        H842   1.082       .  S
C834        C837   1.363       .  A
O835        C836   1.331       .  A
C836        C837   1.390       .  A
C837        H843   1.082   1_655  S
O838        C839   1.334       .  A
C839        C840   1.397       .  A
C840        H844   1.081       .  S
C845        C850   1.381       .  A
C845        C846   1.402       .  A
C845        O851   1.318       .  A
C846        C847   1.402       .  A
C846        H857   1.082       .  S
C847        C856   1.359       .  A
C847        C848   1.379       .  A
C848        C849   1.401       .  A
C848        O854   1.316       .  A
C849        C850   1.400       .  A
C849        H858   1.082       .  S
C850        C853   1.359       .  A
O851        C852   1.329       .  A
C852        C853   1.388       .  A
C853        H859   1.082   1_545  S
O854        C855   1.331       .  A
C855        C856   1.396       .  A
C856        H860   1.081       .  S
C861        C866   1.381       .  A
C861        C862   1.402       .  A
C861        O867   1.317       .  A
C862        C863   1.402       .  A
C862        H873   1.082       .  S
C863        C872   1.360       .  A
C863        C864   1.379       .  A
C864        C865   1.403       .  A
C864        O870   1.318       .  A
C865        C866   1.402       .  A
C865        H874   1.082       .  S
C866        C869   1.362       .  A
O867        C868   1.330       .  A
C868        C869   1.390       .  A
C869        H875   1.082       .  S
O870        C871   1.332       .  A
C871        C872   1.394       .  A
C872        H876   1.082       .  S
C877        C882   1.380       .  A
C877        C878   1.405       .  A
C877        O883   1.319       .  A
C878        C879   1.404       .  A
C878        H889   1.082       .  S
C879        C888   1.364       .  A
C879        C880   1.378       .  A
C880        C881   1.405       .  A
C880        O886   1.319       .  A
C881        C882   1.404       .  A
C881        H890   1.082       .  S
C882        C885   1.364       .  A
O883        C884   1.330       .  A
C884        C885   1.391       .  A
C885        H891   1.082       .  S
O886        C887   1.334       .  A
C887        C888   1.397       .  A
C888        H892   1.081       .  S
C893        C898   1.381       .  A
C893        C894   1.406       .  A
C893        O899   1.321       .  A
C894        C895   1.405       .  A
C894        H905   1.082       .  S
C895        C904   1.366       .  A
C895        C896   1.379       .  A
C896        C897   1.402       .  A
C896        O902   1.316       .  A
C897        C898   1.401       .  A
C897        H906   1.082       .  S
C898        C901   1.361       .  A
O899        C900   1.331       .  A
C900        C901   1.390       .  A
C901        H907   1.083       .  S
O902        C903   1.332       .  A
C903        C904   1.394       .  A
C904        H908   1.082       .  S
C909        C914   1.381       .  A
C909        C910   1.404       .  A
C909        O915   1.320       .  A
C910        C911   1.404       .  A
C910        H921   1.082       .  S
C911        C920   1.361       .  A
C911        C912   1.380       .  A
C912        C913   1.402       .  A
C912        O918   1.318       .  A
C913        C914   1.402       .  A
C913        H922   1.082       .  S
C914        C917   1.360       .  A
O915        C916   1.331       .  A
C916        C917   1.390       .  A
C917        H923   1.082       .  S
O918        C919   1.330       .  A
C919        C920   1.395       .  A
C920        H924   1.082       .  S
C925        C930   1.379       .  A
C925        C926   1.400       .  A
C925        O931   1.312       .  A
C926        C927   1.398       .  A
C926        H937   1.082       .  S
C927        C936   1.359       .  A
C927        C928   1.381       .  A
C928        C929   1.398       .  A
C928        O934   1.312       .  A
C929        C930   1.397       .  A
C929        H938   1.082       .  S
C930        C933   1.357       .  A
O931        C932   1.331       .  A
C932        C933   1.392       .  A
C933        H939   1.081       .  S
O934        C935   1.327       .  A
C935        C936   1.387       .  A
C936        H940   1.082       .  S
C941        C946   1.379       .  A
C941        C942   1.405       .  A
C941        O947   1.320       .  A
C942        C943   1.404       .  A
C942        H953   1.082       .  S
C943        C952   1.364       .  A
C943        C944   1.381       .  A
C944        C945   1.400       .  A
C944        O950   1.316       .  A
C945        C946   1.399       .  A
C945        H954   1.082       .  S
C946        C949   1.358       .  A
O947        C948   1.333       .  A
C948        C949   1.393       .  A
C949        H955   1.082       .  S
O950        C951   1.329       .  A
C951        C952   1.392       .  A
C952        H956   1.082   1_545  S
C957        C962   1.379       .  A
C957        C958   1.407       .  A
C957        O963   1.322       .  A
C958        C959   1.406       .  A
C958        H969   1.082       .  S
C959        C968   1.365       .  A
C959        C960   1.381       .  A
C960        C961   1.396       .  A
C960        O966   1.313       .  A
C961        C962   1.396       .  A
C961        H970   1.082       .  S
C962        C965   1.352       .  A
O963        C964   1.334       .  A
C964        C965   1.391       .  A
C965        H971   1.082       .  S
O966        C967   1.326       .  A
C967        C968   1.392       .  A
C968        H972   1.082       .  S
C973        C978   1.380       .  A
C973        C974   1.405       .  A
C973        O979   1.320       .  A
C974        C975   1.405       .  A
C974        H985   1.082       .  S
C975        C984   1.364       .  A
C975        C976   1.381       .  A
C976        C977   1.399       .  A
C976        O982   1.315       .  A
C977        C978   1.398       .  A
C977        H986   1.082       .  S
C978        C981   1.356       .  A
O979        C980   1.332       .  A
C980        C981   1.392       .  A
C981        H987   1.082       .  S
O982        C983   1.329       .  A
C983        C984   1.392       .  A
C984        H988   1.082       .  S
C989        C994   1.382       .  A
C989        C990   1.394       .  A
C989        O995   1.314       .  A
C990        C991   1.395       .  A
C990       H1001   1.083       .  S
C991       C1000   1.348       .  A
C991        C992   1.378       .  A
C992        C993   1.405       .  A
C992        O998   1.322       .  A
C993        C994   1.406       .  A
C993       H1002   1.082       .  S
C994        C997   1.361       .  A
O995        C996   1.325       .  A
C996        C997   1.392       .  A
C997       H1003   1.083       .  S
O998        C999   1.334       .  A
C999       C1000   1.394       .  A
C1000      H1004   1.081       .  S
C1005      C1010   1.380       .  A
C1005      C1006   1.406       .  A
C1005      O1011   1.323       .  A
C1006      C1007   1.406       .  A
C1006      H1017   1.082       .  S
C1007      C1016   1.364       .  A
C1007      C1008   1.381       .  A
C1008      C1009   1.400       .  A
C1008      O1014   1.317       .  A
C1009      C1010   1.400       .  A
C1009      H1018   1.082       .  S
C1010      C1013   1.355       .  A
O1011      C1012   1.333       .  A
C1012      C1013   1.393       .  A
C1013      H1019   1.082       .  S
O1014      C1015   1.329       .  A
C1015      C1016   1.391       .  A
C1016      H1020   1.082       .  S
C1021      C1026   1.381       .  A
C1021      C1022   1.398       .  A
C1021      O1027   1.316       .  A
C1022      C1023   1.399       .  A
C1022      H1033   1.082       .  S
C1023      C1032   1.352       .  A
C1023      C1024   1.378       .  A
C1024      C1025   1.402       .  A
C1024      O1030   1.319       .  A
C1025      C1026   1.402       .  A
C1025      H1034   1.082       .  S
C1026      C1029   1.358       .  A
O1027      C1028   1.327       .  A
C1028      C1029   1.390       .  A
C1029      H1035   1.082       .  S
O1030      C1031   1.332       .  A
C1031      C1032   1.396       .  A
C1032      H1036   1.081       .  S
C1037      C1042   1.381       .  A
C1037      C1038   1.407       .  A
C1037      O1043   1.320       .  A
C1038      C1039   1.405       .  A
C1038      H1049   1.082       .  S
C1039      C1048   1.367       .  A
C1039      C1040   1.380       .  A
C1040      C1041   1.399       .  A
C1040      O1046   1.313       .  A
C1041      C1042   1.397       .  A
C1041      H1050   1.082       .  S
C1042      C1045   1.357       .  A
O1043      C1044   1.332       .  A
C1044      C1045   1.387       .  A
C1045      H1051   1.083       .  S
O1046      C1047   1.329       .  A
C1047      C1048   1.393       .  A
C1048      H1052   1.082       .  S
C1053      C1058   1.379       .  A
C1053      C1054   1.402       .  A
C1053      O1059   1.318       .  A
C1054      C1055   1.402       .  A
C1054      H1065   1.082       .  S
C1055      C1064   1.358       .  A
C1055      C1056   1.382       .  A
C1056      C1057   1.398       .  A
C1056      O1062   1.316       .  A
C1057      C1058   1.398       .  A
C1057      H1066   1.082       .  S
C1058      C1061   1.353       .  A
O1059      C1060   1.332       .  A
C1060      C1061   1.394       .  A
C1061      H1067   1.081       .  S
O1062      C1063   1.327       .  A
C1063      C1064   1.390       .  A
C1064      H1068   1.083       .  S
C1069      C1074   1.381       .  A
C1069      C1070   1.402       .  A
C1069      O1075   1.318       .  A
C1070      C1071   1.402       .  A
C1070      H1081   1.082       .  S
C1071      C1080   1.359       .  A
C1071      C1072   1.380       .  A
C1072      C1073   1.400       .  A
C1072      O1078   1.317       .  A
C1073      C1074   1.400       .  A
C1073      H1082   1.082       .  S
C1074      C1077   1.358       .  A
O1075      C1076   1.329       .  A
C1076      C1077   1.389       .  A
C1077      H1083   1.082       .  S
O1078      C1079   1.330       .  A
C1079      C1080   1.395       .  A
C1080      H1084   1.082       .  S
C1085      C1090   1.379       .  A
C1085      C1086   1.398       .  A
C1085      O1091   1.314       .  A
C1086      C1087   1.398       .  A
C1086      H1097   1.082       .  S
C1087      C1096   1.355       .  A
C1087      C1088   1.381       .  A
C1088      C1089   1.401       .  A
C1088      O1094   1.318       .  A
C1089      C1090   1.401       .  A
C1089      H1098   1.082       .  S
C1090      C1093   1.357       .  A
O1091      C1092   1.330       .  A
C1092      C1093   1.396       .  A
C1093      H1099   1.081       .  S
O1094      C1095   1.329       .  A
C1095      C1096   1.389       .  A
C1096      H1100   1.082       .  S
C1101      C1106   1.381       .  A
C1101      C1102   1.401       .  A
C1101      O1107   1.313       .  A
C1102      C1103   1.399       .  A
C1102      H1113   1.082       .  S
C1103      C1112   1.361       .  A
C1103      C1104   1.379       .  A
C1104      C1105   1.402       .  A
C1104      O1110   1.313       .  A
C1105      C1106   1.399       .  A
C1105      H1114   1.082       .  S
C1106      C1109   1.362       .  A
O1107      C1108   1.329       .  A
C1108      C1109   1.388       .  A
C1109      H1115   1.082       .  S
O1110      C1111   1.331       .  A
C1111      C1112   1.394       .  A
C1112      H1116   1.082       .  S
C1117      C1122   1.379       .  A
C1117      C1118   1.403       .  A
C1117      O1123   1.319       .  A
C1118      C1119   1.403       .  A
C1118      H1129   1.082       .  S
C1119      C1128   1.362       .  A
C1119      C1120   1.381       .  A
C1120      C1121   1.404       .  A
C1120      O1126   1.319       .  A
C1121      C1122   1.403       .  A
C1121      H1130   1.082       .  S
C1122      C1125   1.360       .  A
O1123      C1124   1.332       .  A
C1124      C1125   1.396       .  A
C1125      H1131   1.082       .  S
O1126      C1127   1.331       .  A
C1127      C1128   1.389       .  A
C1128      H1132   1.082       .  S
C1133      C1138   1.382       .  A
C1133      C1134   1.404       .  A
C1133      O1139   1.319       .  A
C1134      C1135   1.403       .  A
C1134      H1145   1.082       .  S
C1135      C1144   1.362       .  A
C1135      C1136   1.381       .  A
C1136      C1137   1.398       .  A
C1136      O1142   1.314       .  A
C1137      C1138   1.397       .  A
C1137      H1146   1.082       .  S
C1138      C1141   1.355       .  A
O1139      C1140   1.330       .  A
C1140      C1141   1.386       .  A
C1141      H1147   1.083       .  S
O1142      C1143   1.329       .  A
C1143      C1144   1.392       .  A
C1144      H1148   1.082       .  S
C1149      C1154   1.381       .  A
C1149      C1150   1.407       .  A
C1149      O1155   1.322       .  A
C1150      C1151   1.406       .  A
C1150      H1161   1.082       .  S
C1151      C1160   1.366       .  A
C1151      C1152   1.380       .  A
C1152      C1153   1.400       .  A
C1152      O1158   1.315       .  A
C1153      C1154   1.399       .  A
C1153      H1162   1.082       .  S
C1154      C1157   1.358       .  A
O1155      C1156   1.332       .  A
C1156      C1157   1.388       .  A
C1157      H1163   1.083       .  S
O1158      C1159   1.330       .  A
C1159      C1160   1.394       .  A
C1160      H1164   1.082       .  S
C1165      C1170   1.380       .  A
C1165      C1166   1.403       .  A
C1165      O1171   1.317       .  A
C1166      C1167   1.401       .  A
C1166      H1177   1.082       .  S
C1167      C1176   1.362       .  A
C1167      C1168   1.378       .  A
C1168      C1169   1.405       .  A
C1168      O1174   1.318       .  A
C1169      C1170   1.404       .  A
C1169      H1178   1.082       .  S
C1170      C1173   1.366       .  A
O1171      C1172   1.330       .  A
C1172      C1173   1.392       .  A
C1173      H1179   1.082       .  S
O1174      C1175   1.333       .  A
C1175      C1176   1.395       .  A
C1176      H1180   1.082       .  S
C1181      C1186   1.379       .  A
C1181      C1182   1.403       .  A
C1181      O1187   1.316       .  A
C1182      C1183   1.402       .  A
C1182      H1193   1.082       .  S
C1183      C1192   1.363       .  A
C1183      C1184   1.381       .  A
C1184      C1185   1.404       .  A
C1184      O1190   1.318       .  A
C1185      C1186   1.402       .  A
C1185      H1194   1.082       .  S
C1186      C1189   1.363       .  A
O1187      C1188   1.332       .  A
C1188      C1189   1.393       .  A
C1189      H1195   1.082       .  S
O1190      C1191   1.330       .  A
C1191      C1192   1.390       .  A
C1192      H1196   1.082       .  S
C1197      C1202   1.381       .  A
C1197      C1198   1.404       .  A
C1197      O1203   1.319       .  A
C1198      C1199   1.403       .  A
C1198      H1209   1.082       .  S
C1199      C1208   1.364       .  A
C1199      C1200   1.380       .  A
C1200      C1201   1.399       .  A
C1200      O1206   1.313       .  A
C1201      C1202   1.398       .  A
C1201      H1210   1.082       .  S
C1202      C1205   1.357       .  A
O1203      C1204   1.330       .  A
C1204      C1205   1.387       .  A
C1205      H1211   1.083       .  S
O1206      C1207   1.330       .  A
C1207      C1208   1.394       .  A
C1208      H1212   1.082       .  S
C1213      C1218   1.381       .  A
C1213      C1214   1.402       .  A
C1213      O1219   1.317       .  A
C1214      C1215   1.402       .  A
C1214      H1225   1.082       .  S
C1215      C1224   1.360       .  A
C1215      C1216   1.379       .  A
C1216      C1217   1.400       .  A
C1216      O1222   1.315       .  A
C1217      C1218   1.399       .  A
C1217      H1226   1.082       .  S
C1218      C1221   1.358       .  A
O1219      C1220   1.329       .  A
C1220      C1221   1.387       .  A
C1221      H1227   1.082       .  S
O1222      C1223   1.331       .  A
C1223      C1224   1.395       .  A
C1224      H1228   1.082       .  S
C1229      C1234   1.379       .  A
C1229      C1230   1.403       .  A
C1229      O1235   1.319       .  A
C1230      C1231   1.403       .  A
C1230      H1241   1.082       .  S
C1231      C1240   1.360       .  A
C1231      C1232   1.381       .  A
C1232      C1233   1.397       .  A
C1232      O1238   1.316       .  A
C1233      C1234   1.398       .  A
C1233      H1242   1.082       .  S
C1234      C1237   1.353       .  A
O1235      C1236   1.332       .  A
C1236      C1237   1.394       .  A
C1237      H1243   1.081       .  S
O1238      C1239   1.327       .  A
C1239      C1240   1.392       .  A
C1240      H1244   1.082       .  S
C1245      C1250   1.382       .  A
C1245      C1246   1.400       .  A
C1245      O1251   1.318       .  A
C1246      C1247   1.400       .  A
C1246      H1257   1.082       .  S
C1247      C1256   1.355       .  A
C1247      C1248   1.380       .  A
C1248      C1249   1.400       .  A
C1248      O1254   1.317       .  A
C1249      C1250   1.401       .  A
C1249      H1258   1.082       .  S
C1250      C1253   1.357       .  A
O1251      C1252   1.328       .  A
C1252      C1253   1.389       .  A
C1253      H1259   1.083       .  S
O1254      C1255   1.331       .  A
C1255      C1256   1.395       .  A
C1256      H1260   1.082       .  S
