geometry optimzed in LAMMPS
_audit_creation_date              2020-12-01 
_audit_creation_method            'lammps2cif' 
_symmetry_space_group_name_H-M    'P1' 
_symmetry_Int_Tables_number       1 
_symmetry_cell_setting            triclinic 
loop_ 
_symmetry_equiv_pos_as_xyz 
  x,y,z 
_cell_length_a                    39.88088067 
_cell_length_b                    40.004686252149455 
_cell_length_c                    32.91041630340353 
_cell_angle_alpha                 89.96520785739584 
_cell_angle_beta                  90.49600224168739 
_cell_angle_gamma                 89.56162911490695 
loop_ 
_atom_site_label 
_atom_site_type_symbol 
_atom_site_fract_x 
_atom_site_fract_y 
_atom_site_fract_z 
_atom_site_charge 
O1          O  0.10016492  0.33264387  0.22064391    -0.57700
C2          C  0.19341805  0.30089743  0.18612539     0.74900
O3          O  0.14982147  0.39392353  0.12771653    -0.58900
C4          C  0.08460739  0.35982027  0.22706639     0.74900
C5          C  0.20117430  0.38948730  0.24168344     0.77300
Cd6        Cd  0.15069288  0.35852456  0.19037504     1.37500
O7          O  0.16837773  0.30140750  0.20955288    -0.57700
O8          O  0.18147433  0.36707007  0.25361978    -0.56500
C9          C  0.13637574  0.37177705  0.10536588     0.77200
O10         O  0.19471258  0.40155268  0.20675762    -0.58900
O11         O  0.19607002  0.32516854  0.16181933    -0.57400
O12         O  0.10004497  0.38631186  0.21775554    -0.57300
O13         O  0.12873870  0.34472699  0.12281556    -0.56500
O14         O  0.35076095  0.42142215  0.31968439    -0.57700
C15         C  0.44094955  0.44955404  0.36031930     0.74900
O16         O  0.39457763  0.35808998  0.41562539    -0.58900
C17         C  0.33202394  0.39609467  0.31746874     0.74900
C18         C  0.44972339  0.36139698  0.30322392     0.77300
Cd19       Cd  0.39870531  0.39302513  0.35340410     1.37500
O20         O  0.41737437  0.44906564  0.33425721    -0.57700
O21         O  0.42804031  0.38181373  0.28964141    -0.56500
C22         C  0.38561191  0.38211576  0.43842759     0.77200
O23         O  0.44475546  0.35092049  0.33904126    -0.58900
O24         O  0.44268984  0.42545912  0.38503777    -0.57400
O25         O  0.34398277  0.36900230  0.33174662    -0.57300
O26         O  0.38144705  0.41012624  0.42107437    -0.56500
O27         O  0.14531183  0.06914055  0.31702571    -0.57700
C28         C  0.05043257  0.03887162  0.35726374     0.74900
O29         O  0.09543332  0.12659702  0.41237629    -0.58900
C30         C  0.16042473  0.09668405  0.31291632     0.74900
C31         C  0.04413063  0.12449337  0.29571490     0.77300
Cd32       Cd  0.09442199  0.09392187  0.34820809     1.37500
O33         O  0.07386546  0.03765679  0.33143520    -0.57700
O34         O  0.06176083  0.09946494  0.28606095    -0.56500
C35         C  0.11067575  0.10412709  0.43287315     0.77200
O36         O  0.05268577  0.13898165  0.32857089    -0.58900
O37         O  0.05022999  0.06349227  0.38129714    -0.57400
O38         O  0.14449374  0.12272447  0.32368097    -0.57300
O39         O  0.11878839  0.07796582  0.41351856    -0.56500
O40         O  0.39435916  0.17455977  0.23308145    -0.57700
C41         C  0.30037389  0.20327541  0.19159955     0.74900
O42         O  0.34723250  0.11169128  0.13995601    -0.58900
C43         C  0.41164981  0.14797198  0.23628588     0.74900
C44         C  0.29435683  0.11532174  0.25013342     0.77300
Cd45       Cd  0.34473482  0.14732922  0.20128617     1.37500
O46         O  0.32201906  0.20260212  0.22003893    -0.57700
O47         O  0.31449193  0.13672110  0.26408043    -0.56500
C48         C  0.35917526  0.13439330  0.11738813     0.77200
O49         O  0.30135812  0.10394853  0.21520342    -0.58900
O50         O  0.30125835  0.17956835  0.16632893    -0.57400
O51         O  0.39766353  0.12123748  0.22464346    -0.57300
O52         O  0.36594967  0.16193942  0.13443006    -0.56500
O53         O  0.33342007  0.09713192  0.82484268    -0.57700
C54         C  0.29942334  0.19076416  0.86096793     0.74900
O55         O  0.39124078  0.14707489  0.92064252    -0.58900
C56         C  0.36111759  0.08175959  0.82099046     0.74900
C57         C  0.38939683  0.19987122  0.80844763     0.77300
Cd58       Cd  0.35734710  0.14841855  0.85673948     1.37500
O59         O  0.30006530  0.16645521  0.83624254    -0.57700
O60         O  0.36818338  0.17959331  0.79414320    -0.56500
C61         C  0.36805050  0.13502693  0.94225630     0.77200
O62         O  0.39997387  0.19330425  0.84404505    -0.58900
O63         O  0.32354234  0.19270758  0.88592355    -0.57400
O64         O  0.38690453  0.09771239  0.83231078    -0.57300
O65         O  0.34111879  0.12799069  0.92358235    -0.56500
O66         O  0.42949320  0.34661955  0.72916606    -0.57700
C67         C  0.45967499  0.44130527  0.69162536     0.74900
O68         O  0.36488075  0.39624471  0.63819211    -0.58900
C69         C  0.40266987  0.33004048  0.73211772     0.74900
C70         C  0.37161585  0.44837911  0.74807497     0.77300
Cd71       Cd  0.40279950  0.39769731  0.69841034     1.37500
O72         O  0.45993917  0.41779398  0.71751991    -0.57700
O73         O  0.39269535  0.42742218  0.76188708    -0.56500
C74         C  0.38725569  0.38618320  0.61377582     0.77200
O75         O  0.35994725  0.44230933  0.71292001    -0.58900
O76         O  0.43485945  0.44233084  0.66757588    -0.57400
O77         O  0.37603404  0.34507210  0.72098549    -0.57300
O78         O  0.41593925  0.38005349  0.62899576    -0.56500
O79         O  0.18108228  0.40008128  0.82463760    -0.57700
C80         C  0.20690829  0.30190500  0.85883033     0.74900
O81         O  0.11540898  0.35670032  0.90747490    -0.58900
C82         C  0.15572686  0.41263536  0.80670758     0.74900
C83         C  0.12574596  0.29433800  0.79854347     0.77300
Cd84       Cd  0.15292944  0.34802755  0.84753466     1.37500
O85         O  0.20869464  0.32490742  0.83236535    -0.57700
O86         O  0.14920125  0.31316297  0.78712566    -0.56500
C87         C  0.13885162  0.36711857  0.93063055     0.77200
O88         O  0.11023141  0.30358319  0.83031334    -0.58900
O89         O  0.18207239  0.30274628  0.88239433    -0.57400
O90         O  0.12930617  0.39515260  0.80660921    -0.57300
O91         O  0.16759624  0.36893391  0.91487725    -0.56500
O92         O  0.08529039  0.14788651  0.72066204    -0.57700
C93         C  0.04952474  0.05209285  0.69136163     0.74900
O94         O  0.14041470  0.08743817  0.63088452    -0.58900
C95         C  0.11353441  0.16057676  0.72910831     0.74900
C96         C  0.14217739  0.04028508  0.73631643     0.77300
Cd97       Cd  0.10780323  0.09374147  0.69396345     1.37500
O98         O  0.05502650  0.07066501  0.72183410    -0.57700
O99         O  0.12257133  0.06005471  0.75464668    -0.56500
C100        C  0.11982297  0.10345738  0.60851018     0.77200
O101        O  0.15059274  0.04882008  0.70079530    -0.58900
O102        O  0.06786993  0.05668701  0.66086790    -0.57400
O103        O  0.13869681  0.14186237  0.72257875    -0.57300
O104        O  0.09537026  0.11729883  0.62636353    -0.56500
C105        C  0.15680552  0.44585781  0.78659021    -0.06000
C106        C  0.14609940  0.44834449  0.74602645    -0.17200
C107        C  0.14582572  0.47903827  0.72549537     0.11200
C108        C  0.15503752  0.50860603  0.74623942    -0.06000
C109        C  0.16629676  0.50611645  0.78667153    -0.17200
C110        C  0.16769729  0.47513147  0.80682836     0.11200
S111        S  0.13008173  0.47940779  0.67404490    -0.32200
S112        S  0.18130997  0.47504546  0.85916167    -0.32200
H113        H  0.15818743  0.45092035  0.87177971     0.29200
H114        H  0.15854137  0.49549946  0.65867730     0.29200
H115        H  0.13779430  0.42611973  0.73014222     0.19800
H116        H  0.16358023  0.02775499  0.81295649     0.19800
C117        C  0.11668385  0.19538555  0.74556211    -0.06000
C118        C  0.08803083  0.21164936  0.76119783    -0.17200
C119        C  0.08940999  0.24435440  0.77697122     0.11200
C120        C  0.12021708  0.26156483  0.77780734    -0.06000
C121        C  0.14857026  0.24564088  0.76127903    -0.17200
C122        C  0.14729284  0.21317744  0.74516468     0.11200
S123        S  0.05084840  0.26300834  0.79425302    -0.32200
S124        S  0.18529486  0.19549695  0.72421082    -0.32200
H125        H  0.20361375  0.22536764  0.72236931     0.29200
H126        H  0.05874920  0.29550600  0.78128705     0.29200
H127        H  0.06421669  0.19883747  0.76110969     0.19800
H128        H  0.17240952  0.25838496  0.76215932     0.19800
C129        C  0.48550735  0.46773400  0.69089499    -0.06000
C130        C  0.49991485  0.47826707  0.72777852    -0.17200
C131        C  0.01937588  0.00445219  0.72577565     0.11200
C132        C  0.02464904  0.02486616  0.69134160    -0.06000
C133        C  0.00914793  0.01627830  0.65439320    -0.17200
C134        C  0.49306999  0.48542598  0.65498528     0.11200
S135        S  0.04038731  0.01102639  0.77374279    -0.32200
S136        S  0.47964486  0.47194370  0.60519530    -0.32200
H137        H  0.48246830  0.43757949  0.61390495     0.29200
H138        H  0.07226320  0.01378668  0.75618685     0.29200
H139        H  0.49460279  0.46479294  0.75549868     0.19800
H140        H  0.01372672  0.03115093  0.62749247     0.19800
C141        C  0.27334292  0.21708802  0.85989614    -0.06000
C142        C  0.26371752  0.23191177  0.89672597    -0.17200
C143        C  0.24303347  0.26030016  0.89735605     0.11200
C144        C  0.23115344  0.27402584  0.86038396    -0.06000
C145        C  0.24018346  0.25886058  0.82362072    -0.17200
C146        C  0.26141947  0.23092975  0.82292379     0.11200
S147        S  0.23431382  0.27891084  0.94606497    -0.32200
S148        S  0.27442094  0.21594511  0.77387959    -0.32200
H149        H  0.30862149  0.21500546  0.78449768     0.29200
H150        H  0.23447307  0.31211965  0.93195024     0.29200
H151        H  0.27328947  0.22195598  0.92520686     0.19800
H152        H  0.23086443  0.26903880  0.79514809     0.19800
C153        C  0.36304296  0.04712020  0.80401111    -0.06000
C154        C  0.33706782  0.03572639  0.77834995    -0.17200
C155        C  0.33799562  0.00370962  0.76064831     0.11200
C156        C  0.36557103  0.98209672  0.76854096    -0.06000
C157        C  0.39077980  0.99309052  0.79545869    -0.17200
C158        C  0.39002110  0.02505127  0.81302182     0.11200
S159        S  0.30312273  0.99207590  0.72864617    -0.32200
S160        S  0.42362376  0.03662953  0.84741235    -0.32200
H161        H  0.44381581  0.00799269  0.84219808     0.29200
H162        H  0.30313684  0.45254095  0.75038285     0.29200
H163        H  0.31597762  0.05205220  0.77155329     0.19800
H164        H  0.41204816  0.97691473  0.80172822     0.19800
C165        C  0.39803658  0.23106970  0.78566970    -0.06000
C166        C  0.37758652  0.23976644  0.75215257    -0.17200
C167        C  0.37955748  0.27102753  0.73327688     0.11200
C168        C  0.40235991  0.29509764  0.74803732    -0.06000
C169        C  0.42461476  0.28578461  0.77956563    -0.17200
C170        C  0.42280950  0.25412888  0.79849113     0.11200
S171        S  0.35244170  0.27827435  0.68999156    -0.32200
S172        S  0.45224827  0.24386744  0.83872680    -0.32200
H173        H  0.47139106  0.27318654  0.83640265     0.29200
H174        H  0.37633734  0.29627109  0.66782783     0.29200
H175        H  0.35904432  0.22234388  0.74090444     0.19000
H176        H  0.44269657  0.30382640  0.79031882     0.19800
C177        C  0.36424875  0.13001670  0.07308516    -0.06000
C178        C  0.39003058  0.14795044  0.05430020    -0.17200
C179        C  0.39394577  0.14784864  0.01199334     0.11200
C180        C  0.37073636  0.13041559  0.98717777    -0.06000
C181        C  0.34619429  0.11093574  0.00628460    -0.17200
C182        C  0.34264464  0.11059229  0.04856470     0.11200
S183        S  0.42813599  0.17168452  0.99193601    -0.32200
S184        S  0.30816673  0.08713622  0.06872712    -0.32200
H185        H  0.29583609  0.11389005  0.09215033     0.29200
H186        H  0.44051706  0.14478349  0.96879478     0.29200
H187        H  0.40715428  0.16252038  0.07274586     0.19800
H188        H  0.32841868  0.09700901  0.98804449     0.19800
C189        C  0.11752749  0.10674087  0.47745697    -0.06000
C190        C  0.12891858  0.07783295  0.49797007    -0.17200
C191        C  0.13182163  0.07670531  0.54035931     0.11200
C192        C  0.12286454  0.10500018  0.56364353    -0.06000
C193        C  0.11268065  0.13429428  0.54331914    -0.17200
C194        C  0.11062598  0.13573874  0.50075435     0.11200
S195        S  0.14318512  0.03716437  0.56300149    -0.32200
S196        S  0.09881857  0.17528670  0.47853143    -0.32200
H197        H  0.12408781  0.17408336  0.44895699     0.29200
H198        H  0.17183436  0.05008635  0.58243667     0.29200
H199        H  0.13447545  0.05528356  0.48105270     0.19800
H200        H  0.10600447  0.15624120  0.56080203     0.19800
C201        C  0.19540518  0.09872395  0.29804573    -0.06000
C202        C  0.21654590  0.12227538  0.31632131    -0.17200
C203        C  0.24986303  0.12633898  0.30396403     0.11200
C204        C  0.26253781  0.10675378  0.27139687    -0.06000
C205        C  0.24171959  0.08199944  0.25448808    -0.17200
C206        C  0.20850600  0.07782861  0.26732364     0.11200
S207        S  0.27501785  0.15724597  0.33010642    -0.32200
S208        S  0.18363537  0.04692694  0.24136043    -0.32200
H209        H  0.15449054  0.06690438  0.23911813     0.29200
H210        H  0.24956088  0.17101414  0.35437623     0.29200
H211        H  0.20681267  0.13752839  0.34068568     0.19800
H212        H  0.25079324  0.06677676  0.22968098     0.19800
C213        C  0.44678425  0.14782080  0.25148198    -0.06000
C214        C  0.47059976  0.12956194  0.22944220    -0.17200
C215        C  0.50410629  0.12691644  0.24255069     0.11200
C216        C  0.51389221  0.14120297  0.28027902    -0.06000
C217        C  0.49048938  0.16146094  0.30083665    -0.17200
C218        C  0.45731280  0.16518739  0.28667241     0.11200
S219        S  0.03265091  0.09075434  0.20788385    -0.32200
S220        S  0.42931628  0.19088850  0.31617845    -0.32200
H221        H  0.40143133  0.16984366  0.31187316     0.29200
H222        H  0.00891919  0.07516951  0.18248813     0.29200
H223        H  0.46283818  0.11731319  0.20165843     0.19800
H224        H  0.49750281  0.17318148  0.32924354     0.19800
C225        C  0.38121722  0.37897261  0.48325539    -0.06000
C226        C  0.36492117  0.40533094  0.50370277    -0.17200
C227        C  0.36442800  0.40711198  0.54619329     0.11200
C228        C  0.38115803  0.38237157  0.56949815    -0.06000
C229        C  0.39622144  0.35530147  0.54933294    -0.17200
C230        C  0.39591258  0.35296502  0.50680172     0.11200
S231        S  0.34551716  0.44361109  0.56863826    -0.32200
S232        S  0.41684452  0.31737814  0.48487030    -0.32200
H233        H  0.38871688  0.30819607  0.46141519     0.29200
H234        H  0.32313891  0.42491883  0.59218972     0.29200
H235        H  0.35334216  0.42546126  0.48649495     0.19800
H236        H  0.40901582  0.33609121  0.56689771     0.19800
C237        C  0.46703837  0.47517253  0.35972799    -0.06000
C238        C  0.48035122  0.48376720  0.32193251    -0.17200
C239        C  0.00777144  0.00214085  0.32267252     0.11200
C240        C  0.02323654  0.01422195  0.35849727    -0.06000
C241        C  0.00982287  0.00561552  0.39636077    -0.17200
C242        C  0.48210123  0.48755747  0.39558946     0.11200
S243        S  0.02205255  0.01236109  0.27250640    -0.32200
S244        S  0.46597757  0.47918417  0.44558228    -0.32200
H245        H  0.43214208  0.47767076  0.43330743     0.29200
H246        H  0.02223904  0.04681992  0.28056630     0.29200
H247        H  0.46910983  0.47399989  0.29425086     0.19800
H248        H  0.02128078  0.01511056  0.42405435     0.19800
C249        C  0.13193268  0.37606274  0.06070298    -0.06000
C250        C  0.15516141  0.39544335  0.03949694    -0.17200
C251        C  0.15607509  0.39540067  0.99693074     0.11200
C252        C  0.13380952  0.37479253  0.97450675    -0.06000
C253        C  0.10854063  0.35799296  0.99560191    -0.17200
C254        C  0.10712414  0.35868876  0.03828519     0.11200
S255        S  0.18627467  0.42224808  0.97324138    -0.32200
S256        S  0.07355618  0.33711910  0.06350198    -0.32200
H257        H  0.05267947  0.33407319  0.02903077     0.29200
H258        H  0.16506526  0.43060571  0.94040206     0.29200
H259        H  0.17365825  0.40984371  0.05620441     0.19800
H260        H  0.09084252  0.34276399  0.97876737     0.19800
C261        C  0.21942758  0.27448537  0.18788922    -0.06000
C262        C  0.23571138  0.26546243  0.15180146    -0.17200
C263        C  0.26280998  0.24304760  0.15210243     0.11200
C264        C  0.27402873  0.22918122  0.18932357    -0.06000
C265        C  0.25766411  0.23798433  0.22534341    -0.17200
C266        C  0.23073635  0.26054009  0.22511174     0.11200
S267        S  0.28263302  0.23411328  0.10422228    -0.32200
S268        S  0.21321477  0.27168247  0.27358858    -0.32200
H269        H  0.21413247  0.30627698  0.26607193     0.29200
H270        H  0.31532722  0.23143615  0.12035334     0.29200
H271        H  0.22760969  0.27635888  0.12321185     0.19800
H272        H  0.26582980  0.22708672  0.25392346     0.19800
C273        C  0.05022419  0.36042931  0.24446184    -0.06000
C274        C  0.04079094  0.33540485  0.27209996    -0.17200
C275        C  0.00886691  0.33533582  0.29000479     0.11200
C276        C  0.98547028  0.36108895  0.28047792    -0.06000
C277        C  0.99472777  0.38531002  0.25163277    -0.17200
C278        C  0.02642837  0.38523601  0.23351657     0.11200
S279        S  0.99984146  0.30174760  0.32457312    -0.32200
S280        S  0.03551278  0.41644529  0.19542161    -0.32200
H281        H  0.00408438  0.43264026  0.19535123     0.29200
H282        H  0.45866880  0.29254539  0.31065689     0.29200
H283        H  0.05861356  0.31583092  0.28020367     0.19800
H284        H  0.47368623  0.39828428  0.24331205     0.19800
C285        C  0.29787261  0.39807065  0.29934876    -0.06000
C286        C  0.27115408  0.38392952  0.32054595    -0.17200
C287        C  0.23839122  0.38467190  0.30476611     0.11200
C288        C  0.23209342  0.39797101  0.26540208    -0.06000
C289        C  0.25855557  0.41402983  0.24540597    -0.17200
C290        C  0.29115812  0.41429551  0.26192811     0.11200
S291        S  0.20583499  0.36862722  0.33687382    -0.32200
S292        S  0.32357224  0.43350593  0.23227365    -0.32200
H293        H  0.34798085  0.40878581  0.24052153     0.29200
H294        H  0.18188778  0.39271333  0.32458444     0.29200
H295        H  0.27574835  0.37267945  0.35006555     0.19800
H296        H  0.25441961  0.42461436  0.21543885     0.19800
O297        O  0.09934702  0.82789717  0.22622150    -0.57700
C298        C  0.19458678  0.79822304  0.18875765     0.74900
O299        O  0.14931617  0.88889036  0.13356910    -0.58900
C300        C  0.08402737  0.85520883  0.23274038     0.74900
C301        C  0.20075596  0.88589352  0.24535936     0.77300
Cd302      Cd  0.15000381  0.85401696  0.19602213     1.37500
O303        O  0.17320514  0.79945017  0.21700268    -0.57700
O304        O  0.18413071  0.86082814  0.25638273    -0.56500
C305        C  0.13557025  0.86675985  0.11143033     0.77200
O306        O  0.19110234  0.89969356  0.21245269    -0.58900
O307        O  0.19241199  0.82054537  0.16167736    -0.57400
O308        O  0.09982451  0.88157706  0.22397020    -0.57300
O309        O  0.12749264  0.83990109  0.12906675    -0.56500
O310        O  0.35176561  0.92343641  0.31567812    -0.57700
C311        C  0.44058682  0.95394271  0.35861544     0.74900
O312        O  0.39869152  0.86081320  0.41253000    -0.58900
C313        C  0.33345767  0.89776182  0.31428670     0.74900
C314        C  0.45258787  0.86483989  0.30152938     0.77300
Cd315      Cd  0.40017528  0.89594542  0.35030049     1.37500
O316        O  0.41979265  0.95129229  0.32951083    -0.57700
O317        O  0.43029760  0.88420800  0.28716551    -0.56500
C318        C  0.38618955  0.88348668  0.43493094     0.77200
O319        O  0.44777692  0.85483605  0.33757696    -0.58900
O320        O  0.44004673  0.93145550  0.38548812    -0.57400
O321        O  0.34617701  0.87102940  0.32862049    -0.57300
O322        O  0.37875602  0.91073758  0.41728424    -0.56500
O323        O  0.14966483  0.56625006  0.32669131    -0.57700
C324        C  0.04974958  0.54081523  0.35506220     0.74900
O325        O  0.09943772  0.63274424  0.40730020    -0.58900
C326        C  0.16046879  0.59037255  0.30575962     0.74900
C327        C  0.04608854  0.62727776  0.29819724     0.77300
Cd328      Cd  0.09660558  0.59439635  0.34734417     1.37500
O329        O  0.07302680  0.53930613  0.32913376    -0.57700
O330        O  0.06134948  0.60096906  0.28760126    -0.56500
C331        C  0.11308174  0.61130859  0.43074360     0.77200
O332        O  0.05727448  0.64159041  0.32997049    -0.58900
O333        O  0.05101501  0.56467582  0.38012261    -0.57400
O334        O  0.14207302  0.61631405  0.30414782    -0.57300
O335        O  0.12016385  0.58339573  0.41474203    -0.56500
O336        O  0.39080681  0.66757576  0.22784431    -0.57700
C337        C  0.30122538  0.70005339  0.18415512     0.74900
O338        O  0.35250679  0.60594455  0.13062278    -0.58900
C339        C  0.40794466  0.64084859  0.23047242     0.74900
C340        C  0.28910537  0.60540917  0.23025898     0.77300
Cd341      Cd  0.34264065  0.64151297  0.19105491     1.37500
O342        O  0.32119635  0.69601554  0.21399115    -0.57700
O343        O  0.31106924  0.62104020  0.25047338    -0.56500
C344        C  0.36203249  0.62997245  0.10842226     0.77200
O345        O  0.29452185  0.60251377  0.19258309    -0.58900
O346        O  0.30265641  0.67831495  0.15645528    -0.57400
O347        O  0.39428323  0.61463534  0.21671538    -0.57300
O348        O  0.36412044  0.65826616  0.12542728    -0.56500
O349        O  0.33382979  0.59721143  0.82088496    -0.57700
C350        C  0.30172151  0.69185932  0.85825829     0.74900
O351        O  0.39451831  0.64783732  0.91230956    -0.58900
C352        C  0.36150261  0.58202804  0.81590831     0.74900
C353        C  0.38994257  0.70079073  0.80076122     0.77300
Cd354      Cd  0.35885208  0.64914543  0.85003027     1.37500
O355        O  0.30184464  0.66878565  0.83181620    -0.57700
O356        O  0.36656317  0.68224875  0.78797688    -0.56500
C357        C  0.37210884  0.63503748  0.93450036     0.77200
O358        O  0.40261354  0.69240530  0.83480405    -0.58900
O359        O  0.32591452  0.69215216  0.88326726    -0.57400
O360        O  0.38751695  0.59868060  0.82445956    -0.57300
O361        O  0.34475095  0.62777422  0.91695029    -0.56500
O362        O  0.43097696  0.84850964  0.72287097    -0.57700
C363        C  0.45733112  0.94603049  0.68649067     0.74900
O364        O  0.36429014  0.89791278  0.63467205    -0.58900
C365        C  0.40415991  0.83221027  0.72779164     0.74900
C366        C  0.37234391  0.95045758  0.74577914     0.77300
Cd367      Cd  0.40277452  0.90023823  0.69458599     1.37500
O368        O  0.46018932  0.92081683  0.70977466    -0.57700
O369        O  0.39410135  0.92973181  0.75863175    -0.56500
C370        C  0.38679059  0.88821329  0.61020487     0.77200
O371        O  0.35987262  0.94422690  0.71104438    -0.58900
O372        O  0.43100207  0.94776108  0.66503287    -0.57400
O373        O  0.37715074  0.84781781  0.71947899    -0.57300
O374        O  0.41565890  0.88296761  0.62535536    -0.56500
O375        O  0.17896035  0.89884775  0.83061898    -0.57700
C376        C  0.20850428  0.80241997  0.86239956     0.74900
O377        O  0.11536231  0.85274884  0.91363676    -0.58900
C378        C  0.15306289  0.91115424  0.81367046     0.74900
C379        C  0.12504837  0.79289435  0.80401742     0.77300
Cd380      Cd  0.15229946  0.84624955  0.85321290     1.37500
O381        O  0.20812707  0.82502949  0.83533945    -0.57700
O382        O  0.14826592  0.81204629  0.79276235    -0.56500
C383        C  0.13872298  0.86354318  0.93662929     0.77200
O384        O  0.10972835  0.80147846  0.83617069    -0.58900
O385        O  0.18466968  0.80260556  0.88744745    -0.57400
O386        O  0.12686492  0.89338803  0.81416235    -0.57300
O387        O  0.16720498  0.86653655  0.92050809    -0.56500
O388        O  0.08625548  0.64871159  0.71919530    -0.57700
C389        C  0.05337947  0.55193774  0.68754511     0.74900
O390        O  0.14457243  0.59810827  0.62816325    -0.58900
C391        C  0.11428433  0.66120179  0.72910527     0.74900
C392        C  0.14564904  0.54181556  0.72942750     0.77300
Cd393      Cd  0.10999080  0.59586331  0.69022045     1.37500
O394        O  0.05910717  0.56960842  0.71875171    -0.57700
O395        O  0.12675983  0.56138632  0.74908836    -0.56500
C396        C  0.12180121  0.61086617  0.60574902     0.77200
O397        O  0.15287217  0.55069999  0.69361470    -0.58900
O398        O  0.07051346  0.55837500  0.65647176    -0.57400
O399        O  0.13965593  0.64290925  0.72226208    -0.57300
O400        O  0.09458109  0.61835150  0.62326493    -0.56500
C401        C  0.15338385  0.94446752  0.79405302    -0.06000
C402        C  0.14576086  0.94663494  0.75252053    -0.17200
C403        C  0.14539728  0.97744246  0.73225835     0.11200
C404        C  0.15132847  0.00732344  0.75413726    -0.06000
C405        C  0.15951170  0.00509360  0.79566709    -0.17200
C406        C  0.16102708  0.97404493  0.81565556     0.11200
S407        S  0.13423450  0.97723841  0.67913308    -0.32200
S408        S  0.17091712  0.97398433  0.86919365    -0.32200
H409        H  0.14882851  0.94808139  0.87919093     0.29200
H410        H  0.16362447  0.99382628  0.66749187     0.29200
H411        H  0.14009674  0.92408787  0.73566176     0.19800
H412        H  0.17273305  0.52863381  0.80318253     0.19800
C413        C  0.11705525  0.69533395  0.74746844    -0.06000
C414        C  0.08809128  0.71095895  0.76319156    -0.17200
C415        C  0.08912330  0.74307910  0.78066259     0.11200
C416        C  0.11981259  0.76045309  0.78258922    -0.06000
C417        C  0.14851030  0.74507480  0.76625910    -0.17200
C418        C  0.14770820  0.71303518  0.74903827     0.11200
S419        S  0.05037136  0.76062323  0.79895422    -0.32200
S420        S  0.18640887  0.69572625  0.72944310    -0.32200
H421        H  0.20612929  0.72451112  0.73376810     0.29200
H422        H  0.05788588  0.79368357  0.78792954     0.29200
H423        H  0.06435117  0.69804938  0.76198151     0.19800
H424        H  0.17225373  0.75792389  0.76824429     0.19800
C425        C  0.48200054  0.97346051  0.68631712    -0.06000
C426        C  0.49790357  0.98185755  0.72305291    -0.17200
C427        C  0.02702376  0.50140798  0.72044625     0.11200
C428        C  0.02950726  0.52383497  0.68734224    -0.06000
C429        C  0.01168132  0.51694571  0.65140046    -0.17200
C430        C  0.48711410  0.99385990  0.65183770     0.11200
S431        S  0.05187187  0.50514626  0.76613831    -0.32200
S432        S  0.47038782  0.98409915  0.60219070    -0.32200
H433        H  0.47417959  0.94926740  0.60649068     0.29200
H434        H  0.08162290  0.51124200  0.74507742     0.29200
H435        H  0.49406410  0.96655212  0.74977553     0.19800
H436        H  0.01434290  0.53319928  0.62528832     0.19800
C437        C  0.27617443  0.71869236  0.85894987    -0.06000
C438        C  0.26714794  0.73252721  0.89656379    -0.17200
C439        C  0.24632811  0.76077444  0.89878660     0.11200
C440        C  0.23377289  0.77540328  0.86260132    -0.06000
C441        C  0.24271506  0.76153711  0.82507382    -0.17200
C442        C  0.26394454  0.73371516  0.82281964     0.11200
S443        S  0.23804449  0.77778516  0.94846410    -0.32200
S444        S  0.27627417  0.72016601  0.77292909    -0.32200
H445        H  0.31060862  0.71969989  0.78280728     0.29200
H446        H  0.23712585  0.81136643  0.93573771     0.29200
H447        H  0.27706611  0.72172390  0.92445880     0.19800
H448        H  0.23300345  0.77243281  0.79714408     0.19800
C449        C  0.36320384  0.54673442  0.80108960    -0.06000
C450        C  0.33562937  0.53331098  0.77970221    -0.17200
C451        C  0.33633378  0.50056268  0.76409138     0.11200
C452        C  0.36520949  0.48035868  0.76992692    -0.06000
C453        C  0.39196157  0.49321092  0.79301374    -0.17200
C454        C  0.39156831  0.52593119  0.80821671     0.11200
S455        S  0.29950878  0.48596653  0.73765624    -0.32200
S456        S  0.42761253  0.53998734  0.83708955    -0.32200
H457        H  0.44978096  0.51418265  0.82567982     0.29200
H458        H  0.30271904  0.95862721  0.74186228     0.29200
H459        H  0.31345382  0.54857666  0.77457789     0.19800
H460        H  0.41414843  0.47791631  0.79780783     0.19800
C461        C  0.39900718  0.73208702  0.77825417    -0.06000
C462        C  0.37811249  0.74193062  0.74560686    -0.17200
C463        C  0.38055337  0.77347390  0.72748076     0.11200
C464        C  0.40408714  0.79679743  0.74233548    -0.06000
C465        C  0.42697262  0.78624131  0.77261353    -0.17200
C466        C  0.42481082  0.75420972  0.79065841     0.11200
S467        S  0.35310566  0.78211840  0.68486094    -0.32200
S468        S  0.45502695  0.74229864  0.82936773    -0.32200
H469        H  0.47318504  0.77229565  0.82968941     0.29200
H470        H  0.37676554  0.80084190  0.66320335     0.29200
H471        H  0.35889814  0.72518906  0.73445310     0.19000
H472        H  0.44580825  0.80360970  0.78315320     0.19800
C473        C  0.36935439  0.62638110  0.06449786    -0.06000
C474        C  0.39034095  0.65013061  0.04641755    -0.17200
C475        C  0.39418161  0.65184652  0.00423748     0.11200
C476        C  0.37622015  0.62962052  0.97891838    -0.06000
C477        C  0.35724070  0.60429688  0.99713743    -0.17200
C478        C  0.35351360  0.60245626  0.03934725     0.11200
S479        S  0.41959063  0.68509451  0.98474490    -0.32200
S480        S  0.32570668  0.57096793  0.05846139    -0.32200
H481        H  0.30565307  0.59401486  0.07977681     0.29200
H482        H  0.43994240  0.66329378  0.96201551     0.29200
H483        H  0.40306806  0.66839172  0.06525844     0.19800
H484        H  0.34355379  0.58685261  0.97817027     0.19800
C485        C  0.11977260  0.61705735  0.47487176    -0.06000
C486        C  0.14284076  0.59563559  0.49460955    -0.17200
C487        C  0.14629332  0.59503160  0.53698562     0.11200
C488        C  0.12542276  0.61563131  0.56109400    -0.06000
C489        C  0.10392621  0.63860094  0.54133553    -0.17200
C490        C  0.10129348  0.63998326  0.49882574     0.11200
S491        S  0.17565510  0.56521054  0.55810561    -0.32200
S492        S  0.07190223  0.66969810  0.47761514    -0.32200
H493        H  0.09573122  0.68380504  0.45153702     0.29200
H494        H  0.19293817  0.58957779  0.58070002     0.29200
H495        H  0.15775633  0.57828282  0.47688561     0.19800
H496        H  0.08815278  0.65505903  0.55923325     0.19800
C497        C  0.19306822  0.58864604  0.28466111    -0.06000
C498        C  0.22236142  0.58264817  0.30757268    -0.17200
C499        C  0.25432045  0.58582364  0.29015877     0.11200
C500        C  0.25703472  0.59459919  0.24868639    -0.06000
C501        C  0.22756292  0.59801429  0.22522485    -0.17200
C502        C  0.19579428  0.59523365  0.24269352     0.11200
S503        S  0.29133382  0.57874863  0.32111176    -0.32200
S504        S  0.15966630  0.60094128  0.20997826    -0.32200
H505        H  0.13843877  0.57956052  0.23166630     0.29200
H506        H  0.27465701  0.57256577  0.35781145     0.29200
H507        H  0.22014593  0.57697614  0.33962584     0.19800
H508        H  0.22918766  0.60460978  0.19333476     0.19800
C509        C  0.44277845  0.64002047  0.24675903    -0.06000
C510        C  0.46654242  0.62114390  0.22543043    -0.17200
C511        C  0.49997644  0.61836173  0.23875572     0.11200
C512        C  0.51012532  0.63430000  0.27541042    -0.06000
C513        C  0.48656875  0.65466582  0.29558763    -0.17200
C514        C  0.45319135  0.65757755  0.28185939     0.11200
S515        S  0.03554997  0.60519818  0.20562651    -0.32200
S516        S  0.42469282  0.68207582  0.31213011    -0.32200
H517        H  0.39725308  0.66055040  0.30704444     0.29200
H518        H  0.01497574  0.60364755  0.17074505     0.29200
H519        H  0.45876305  0.60863646  0.19773171     0.19800
H520        H  0.49363758  0.66705407  0.32365779     0.19800
C521        C  0.38160002  0.87982413  0.47969939    -0.06000
C522        C  0.36176257  0.90383084  0.49986856    -0.17200
C523        C  0.36086556  0.90572097  0.54239786     0.11200
C524        C  0.38078512  0.88355123  0.56596751    -0.06000
C525        C  0.39920023  0.85851909  0.54600382    -0.17200
C526        C  0.39944352  0.85603367  0.50354721     0.11200
S527        S  0.33686025  0.93931101  0.56441457    -0.32200
S528        S  0.42518168  0.82347622  0.48217731    -0.32200
H529        H  0.39880422  0.81053762  0.45842195     0.29200
H530        H  0.31780186  0.91779878  0.58872861     0.29200
H531        H  0.34765708  0.92217324  0.48239032     0.19800
H532        H  0.41435786  0.84114556  0.56369497     0.19800
C533        C  0.46640948  0.97996706  0.35918407    -0.06000
C534        C  0.48110963  0.98837408  0.32208861    -0.17200
C535        C  0.00637234  0.50534074  0.31918960     0.11200
C536        C  0.02141730  0.51723861  0.35541912    -0.06000
C537        C  0.00702142  0.50896649  0.39286601    -0.17200
C538        C  0.47991686  0.99301758  0.39563644     0.11200
S539        S  0.02111171  0.51620395  0.26937888    -0.32200
S540        S  0.46145343  0.98569808  0.44466614    -0.32200
H541        H  0.42818795  0.98467691  0.43012034     0.29200
H542        H  0.02093650  0.55063775  0.27774541     0.29200
H543        H  0.47096843  0.97836733  0.29388278     0.19800
H544        H  0.01787085  0.51849347  0.42079018     0.19800
C545        C  0.13142087  0.87089478  0.06676662    -0.06000
C546        C  0.15459483  0.89065643  0.04599899    -0.17200
C547        C  0.15588960  0.89088066  0.00350171     0.11200
C548        C  0.13384897  0.87035343  0.98066099    -0.06000
C549        C  0.10879637  0.85288130  0.00132105    -0.17200
C550        C  0.10717431  0.85305625  0.04397864     0.11200
S551        S  0.18646773  0.91780018  0.98060154    -0.32200
S552        S  0.07404527  0.83035807  0.06869590    -0.32200
H553        H  0.05649586  0.82108038  0.03324800     0.29200
H554        H  0.16564163  0.92682304  0.94765038     0.29200
H555        H  0.17281150  0.90515444  0.06301959     0.19800
H556        H  0.09139516  0.83767275  0.98406389     0.19800
C557        C  0.22178164  0.77310199  0.18789187    -0.06000
C558        C  0.23214482  0.76047532  0.15025373    -0.17200
C559        C  0.25889104  0.73775990  0.14753712     0.11200
C560        C  0.27584265  0.72721668  0.18342368    -0.06000
C561        C  0.26585503  0.74057484  0.22087578    -0.17200
C562        C  0.23936896  0.76341685  0.22346696     0.11200
S563        S  0.27009775  0.72375590  0.09735953    -0.32200
S564        S  0.23039932  0.78043290  0.27286179    -0.32200
H565        H  0.23051059  0.81363975  0.25892930     0.29200
H566        H  0.30486858  0.72547569  0.10456129     0.29200
H567        H  0.21932113  0.76841587  0.12268784     0.19800
H568        H  0.27849246  0.73285988  0.24865959     0.19800
C569        C  0.04943080  0.85626757  0.24941561    -0.06000
C570        C  0.03911619  0.83122449  0.27653534    -0.17200
C571        C  0.00690929  0.83168934  0.29367711     0.11200
C572        C  0.98432589  0.85810987  0.28419602    -0.06000
C573        C  0.99435027  0.88228830  0.25574145    -0.17200
C574        C  0.02628406  0.88162869  0.23822634     0.11200
S575        S  0.99610495  0.79749691  0.32656188    -0.32200
S576        S  0.03632751  0.91262322  0.20023798    -0.32200
H577        H  0.00804014  0.93328115  0.20577055     0.29200
H578        H  0.45976977  0.79675968  0.30475063     0.29200
H579        H  0.05633326  0.81120883  0.28464873     0.19800
H580        H  0.47847236  0.90476505  0.24641234     0.19800
C581        C  0.29866270  0.89886660  0.29794032    -0.06000
C582        C  0.27367990  0.88255102  0.31990615    -0.17200
C583        C  0.24044381  0.88168175  0.30598528     0.11200
C584        C  0.23185782  0.89574647  0.26767254    -0.06000
C585        C  0.25637930  0.91414600  0.24706168    -0.17200
C586        C  0.28950049  0.91599047  0.26180688     0.11200
S587        S  0.21032899  0.86236790  0.33895271    -0.32200
S588        S  0.31927316  0.93848130  0.23152854    -0.32200
H589        H  0.34553939  0.91520939  0.23699674     0.29200
H590        H  0.18399347  0.88439435  0.32828346     0.29200
H591        H  0.28004718  0.87065418  0.34860964     0.19800
H592        H  0.25037227  0.92537732  0.21785773     0.19800
O593        O  0.59588011  0.32275953  0.22038742    -0.57700
C594        C  0.69077148  0.29198257  0.18710193     0.74900
O595        O  0.64376913  0.38623663  0.13025720    -0.58900
C596        C  0.57997369  0.34991799  0.22588005     0.74900
C597        C  0.70155212  0.38270286  0.23301984     0.77300
Cd598      Cd  0.64728106  0.34912333  0.19095951     1.37500
O599        O  0.67410514  0.29812266  0.21886242    -0.57700
O600        O  0.67927084  0.36718470  0.25243000    -0.56500
C601        C  0.63350892  0.36336712  0.10651092     0.77200
O602        O  0.69559815  0.38761957  0.19562845    -0.58900
O603        O  0.68322228  0.30902464  0.15600203    -0.57400
O604        O  0.59563139  0.37630920  0.21681033    -0.57300
O605        O  0.62881668  0.33497701  0.12240555    -0.56500
O606        O  0.84208727  0.41505745  0.33145495    -0.57700
C607        C  0.93814451  0.45029938  0.35874079     0.74900
O608        O  0.89965114  0.35271386  0.40977600    -0.58900
C609        C  0.83275681  0.39104265  0.30916300     0.74900
C610        C  0.95310024  0.36668300  0.30229586     0.77300
Cd611      Cd  0.89800348  0.39178570  0.35033497     1.37500
O612        O  0.91534988  0.44895076  0.33171955    -0.57700
O613        O  0.93320925  0.38962028  0.29074615    -0.56500
C614        C  0.88669238  0.37366324  0.43415969     0.77200
O615        O  0.94473753  0.35132056  0.33441808    -0.58900
O616        O  0.93939074  0.42658808  0.38401041    -0.57400
O617        O  0.85321679  0.36672646  0.30619439    -0.57300
O618        O  0.87702989  0.40111025  0.41872445    -0.56500
O619        O  0.64901817  0.07196456  0.31969001    -0.57700
C620        C  0.55207002  0.04440448  0.35703120     0.74900
O621        O  0.60362464  0.13448098  0.41058027    -0.58900
C622        C  0.66229392  0.09918635  0.30877958     0.74900
C623        C  0.54571008  0.13125640  0.30165845     0.77300
Cd624      Cd  0.59784581  0.09855852  0.34920811     1.37500
O625        O  0.57513958  0.04336345  0.33075366    -0.57700
O626        O  0.56435667  0.10823393  0.28816551    -0.56500
C627        C  0.61704213  0.11186603  0.43254114     0.77200
O628        O  0.55420045  0.14300245  0.33607324    -0.58900
O629        O  0.55341392  0.06789770  0.38261323    -0.57400
O630        O  0.64529898  0.12551528  0.31547169    -0.57300
O631        O  0.62237258  0.08413668  0.41508132    -0.56500
O632        O  0.89610066  0.16834021  0.21834368    -0.57700
C633        C  0.80185419  0.19886228  0.18007179     0.74900
O634        O  0.84452515  0.10636496  0.12690762    -0.58900
C635        C  0.91224713  0.14128107  0.22372685     0.74900
C636        C  0.79491473  0.11345603  0.23892473     0.77300
Cd637      Cd  0.84552451  0.14210392  0.18827232     1.37500
O638        O  0.82698195  0.19981242  0.20392944    -0.57700
O639        O  0.81655996  0.13369159  0.25220090    -0.56500
C640        C  0.85810955  0.12799888  0.10423695     0.77200
O641        O  0.80097237  0.10052813  0.20453571    -0.58900
O642        O  0.79910242  0.17311921  0.15820400    -0.57400
O643        O  0.89734935  0.11460987  0.21350237    -0.57300
O644        O  0.86744152  0.15483038  0.12111144    -0.56500
O645        O  0.83061091  0.09898394  0.81093327    -0.57700
C646        C  0.80028868  0.19455353  0.85347096     0.74900
O647        O  0.88775348  0.14669758  0.91034307    -0.58900
C648        C  0.85793360  0.08258079  0.80935098     0.74900
C649        C  0.89100963  0.19926674  0.80053591     0.77300
Cd650      Cd  0.85542382  0.14870471  0.84585891     1.37500
O651        O  0.80076374  0.17332985  0.82485237    -0.57700
O652        O  0.86954597  0.18006354  0.78459409    -0.56500
C653        C  0.86585203  0.13033891  0.92963991     0.77200
O654        O  0.90020390  0.19163580  0.83635886    -0.58900
O655        O  0.82243670  0.19116552  0.88081418    -0.57400
O656        O  0.88376989  0.09774801  0.82201782    -0.57300
O657        O  0.84030341  0.12153161  0.90926460    -0.56500
O658        O  0.93362211  0.34728726  0.72634365    -0.57700
C659        C  0.96143779  0.44118413  0.68316998     0.74900
O660        O  0.86893141  0.39212471  0.63252202    -0.58900
C661        C  0.90700017  0.33036712  0.72911450     0.74900
C662        C  0.87493675  0.44757905  0.74422192     0.77300
Cd663      Cd  0.90606845  0.39689756  0.69332845     1.37500
O664        O  0.96459866  0.41517805  0.70505930    -0.57700
O665        O  0.89827041  0.42835339  0.75641625    -0.56500
C666        C  0.89130536  0.38047515  0.60915381     0.77200
O667        O  0.86183229  0.44009221  0.71016670    -0.58900
O668        O  0.93399637  0.44468630  0.66415675    -0.57400
O669        O  0.88010601  0.34495646  0.71801998    -0.57300
O670        O  0.91993202  0.37585577  0.62524683    -0.56500
O671        O  0.67906943  0.40516655  0.82892367    -0.57700
C672        C  0.71109936  0.30857028  0.85886770     0.74900
O673        O  0.61498493  0.35586988  0.90798842    -0.58900
C674        C  0.65347972  0.41589977  0.80984170     0.74900
C675        C  0.62632026  0.29779277  0.80108606     0.77300
Cd676      Cd  0.65393179  0.35126391  0.84952417     1.37500
O677        O  0.71052748  0.33129581  0.83195214    -0.57700
O678        O  0.65016203  0.31615359  0.78976238    -0.56500
C679        C  0.63725350  0.36703666  0.93220287     0.77200
O680        O  0.61115519  0.30707705  0.83302122    -0.58900
O681        O  0.68708998  0.30836362  0.88364377    -0.57400
O682        O  0.62839604  0.39664608  0.80852620    -0.57300
O683        O  0.66604206  0.37156404  0.91746621    -0.56500
O684        O  0.58350977  0.15370793  0.71893555    -0.57700
C685        C  0.54736656  0.05874341  0.69163399     0.74900
O686        O  0.64260343  0.09750887  0.63147168    -0.58900
C687        C  0.61170210  0.16548170  0.72939559     0.74900
C688        C  0.63996212  0.04349174  0.72994198     0.77300
Cd689      Cd  0.60617540  0.09964273  0.69187140     1.37500
O690        O  0.55658739  0.07388683  0.72350687    -0.57700
O691        O  0.62423396  0.06502181  0.75069238    -0.56500
C692        C  0.62185914  0.11172218  0.60756214     0.77200
O693        O  0.64498585  0.05093839  0.69312187    -0.58900
O694        O  0.56165720  0.06730711  0.65917190    -0.57400
O695        O  0.63663390  0.14621348  0.72414902    -0.57300
O696        O  0.59494453  0.12237338  0.62333305    -0.56500
C697        C  0.65289216  0.44884549  0.78928805    -0.06000
C698        C  0.63934490  0.45063870  0.74995372    -0.17200
C699        C  0.63786779  0.48083094  0.72858807     0.11200
C700        C  0.64959186  0.51058396  0.74700340    -0.06000
C701        C  0.66321789  0.50883946  0.78645968    -0.17200
C702        C  0.66505936  0.47839284  0.80770983     0.11200
S703        S  0.61752208  0.48024511  0.67953441    -0.32200
S704        S  0.68072081  0.47942281  0.85922878    -0.32200
H705        H  0.65778299  0.45601666  0.87421329     0.29200
H706        H  0.64609885  0.49187558  0.65930202     0.29200
H707        H  0.62969195  0.42819542  0.73564564     0.19800
H708        H  0.66816623  0.03081031  0.80313831     0.19800
C709        C  0.61520698  0.19993584  0.74649421    -0.06000
C710        C  0.58712772  0.21581829  0.76400335    -0.17200
C711        C  0.58911618  0.24816520  0.78068099     0.11200
C712        C  0.61988466  0.26547416  0.77991998    -0.06000
C713        C  0.64756245  0.24994410  0.76139695    -0.17200
C714        C  0.64581178  0.21764164  0.74506840     0.11200
S715        S  0.55145057  0.26604879  0.80162234    -0.32200
S716        S  0.68306201  0.20011469  0.72200361    -0.32200
H717        H  0.70529015  0.22597362  0.73223048     0.29200
H718        H  0.55803152  0.29874977  0.78829348     0.29200
H719        H  0.56338294  0.20286005  0.76496634     0.19800
H720        H  0.67127688  0.26288924  0.76080936     0.19800
C721        C  0.98719677  0.46752938  0.68205526    -0.06000
C722        C  0.00562760  0.47395259  0.71765322    -0.17200
C723        C  0.51864075  0.00983126  0.72610343     0.11200
C724        C  0.52302114  0.03087460  0.69189611    -0.06000
C725        C  0.50699052  0.02240745  0.65518198    -0.17200
C726        C  0.99103161  0.48892373  0.64819177     0.11200
S727        S  0.54013940  0.01587246  0.77385245    -0.32200
S728        S  0.97150017  0.48112457  0.59951820    -0.32200
H729        H  0.97409619  0.44608290  0.60223626     0.29200
H730        H  0.57196146  0.01685987  0.75583207     0.29200
H731        H  0.00313304  0.45762830  0.74374473     0.19800
H732        H  0.51074953  0.03763211  0.62838091     0.19800
C733        C  0.77677378  0.22327970  0.85430555    -0.06000
C734        C  0.76640677  0.23575864  0.89211735    -0.17200
C735        C  0.74669564  0.26477094  0.89488853     0.11200
C736        C  0.73655540  0.28162731  0.85902312    -0.06000
C737        C  0.74742616  0.26952207  0.82133809    -0.17200
C738        C  0.76763683  0.24095001  0.81861385     0.11200
S739        S  0.73625379  0.27949959  0.94503858    -0.32200
S740        S  0.78232810  0.22954892  0.76886618    -0.32200
H741        H  0.81587777  0.22572320  0.78163242     0.29200
H742        H  0.73735919  0.31365151  0.93489190     0.29200
H743        H  0.77412543  0.22307950  0.91979649     0.19800
H744        H  0.73971826  0.28212611  0.79362237     0.19800
C745        C  0.85954711  0.04747104  0.79395077    -0.06000
C746        C  0.83485904  0.03609698  0.76649633    -0.17200
C747        C  0.83583147  0.00349684  0.75043164     0.11200
C748        C  0.86224002  0.98141985  0.76168052    -0.06000
C749        C  0.88583871  0.99234200  0.79064930    -0.17200
C750        C  0.88491592  0.02475261  0.80682515     0.11200
S751        S  0.80249394  0.99162803  0.71622075    -0.32200
S752        S  0.91630549  0.03614733  0.84429356    -0.32200
H753        H  0.93267374  0.00494863  0.84705667     0.29200
H754        H  0.80559565  0.44907924  0.74811948     0.29200
H755        H  0.81476840  0.05286459  0.75706142     0.19800
H756        H  0.90618090  0.97575145  0.79954271     0.19800
C757        C  0.90143627  0.23057668  0.77922376    -0.06000
C758        C  0.88420995  0.23905594  0.74309572    -0.17200
C759        C  0.88690995  0.27066296  0.72534386     0.11200
C760        C  0.90709666  0.29522680  0.74392995    -0.06000
C761        C  0.92666536  0.28617938  0.77798474    -0.17200
C762        C  0.92410398  0.25420221  0.79590561     0.11200
S763        S  0.86394029  0.27792568  0.67865993    -0.32200
S764        S  0.94933746  0.24461375  0.84034090    -0.32200
H765        H  0.96791216  0.27436525  0.84093432     0.29200
H766        H  0.88831403  0.29859375  0.66118631     0.29200
H767        H  0.86738798  0.22128154  0.72899964     0.19000
H768        H  0.94287057  0.30471976  0.79157802     0.19800
C769        C  0.86208921  0.12324948  0.05998027    -0.06000
C770        C  0.89131471  0.13498093  0.04146398    -0.17200
C771        C  0.89491033  0.13469096  0.99913376     0.11200
C772        C  0.86802704  0.12369430  0.97419099    -0.06000
C773        C  0.83981735  0.10976774  0.99309123    -0.17200
C774        C  0.83638138  0.10981188  0.03534627     0.11200
S775        S  0.93427272  0.14892375  0.97934540    -0.32200
S776        S  0.79702195  0.09574202  0.05544431    -0.32200
H777        H  0.79273056  0.12347628  0.08123133     0.29200
H778        H  0.93662801  0.12310398  0.95044362     0.29200
H779        H  0.91149401  0.14473317  0.06019018     0.19800
H780        H  0.81903695  0.10077178  0.97482758     0.19800
C781        C  0.62456400  0.11598071  0.47683072    -0.06000
C782        C  0.63849380  0.08843773  0.49780811    -0.17200
C783        C  0.64047859  0.08756301  0.54025263     0.11200
C784        C  0.62749139  0.11449942  0.56314033    -0.06000
C785        C  0.61561740  0.14298050  0.54238909    -0.17200
C786        C  0.61493648  0.14444705  0.49974715     0.11200
S787        S  0.65619294  0.04968308  0.56332857    -0.32200
S788        S  0.60070182  0.18298313  0.47692037    -0.32200
H789        H  0.62699948  0.18384975  0.44868324     0.29200
H790        H  0.68165714  0.06629303  0.58499052     0.29200
H791        H  0.64676790  0.06650791  0.48110768     0.19800
H792        H  0.60627313  0.16417678  0.55961308     0.19800
C793        C  0.69648012  0.10096692  0.29097487    -0.06000
C794        C  0.71508823  0.12991162  0.29862976    -0.17200
C795        C  0.74764519  0.13390215  0.28380181     0.11200
C796        C  0.76264249  0.10804803  0.26045573    -0.06000
C797        C  0.74414867  0.07884561  0.25300118    -0.17200
C798        C  0.71137152  0.07507991  0.26775861     0.11200
S799        S  0.76839519  0.17331186  0.29316127    -0.32200
S800        S  0.68934764  0.03760997  0.25374244    -0.32200
H801        H  0.65869275  0.05406732  0.24570454     0.29200
H802        H  0.74240045  0.18927616  0.31446917     0.29200
H803        H  0.70390828  0.14972350  0.31648748     0.19800
H804        H  0.75489199  0.05920998  0.23441904     0.19800
C805        C  0.94701377  0.14056566  0.24020396    -0.06000
C806        C  0.97048845  0.11960992  0.22137699    -0.17200
C807        C  0.00350515  0.11647219  0.23614509     0.11200
C808        C  0.01324309  0.13383253  0.27199776    -0.06000
C809        C  0.99028904  0.15662932  0.28906314    -0.17200
C810        C  0.95748731  0.16016551  0.27365747     0.11200
S811        S  0.53359745  0.10534722  0.21013359    -0.32200
S812        S  0.92955670  0.18822497  0.29993891    -0.32200
H813        H  0.90169060  0.16692051  0.29793060     0.29200
H814        H  0.51321994  0.10464948  0.17503692     0.29200
H815        H  0.96284833  0.10574739  0.19455269     0.19800
H816        H  0.99721678  0.17044246  0.31618616     0.19800
C817        C  0.88398739  0.36815253  0.47878899    -0.06000
C818        C  0.85881947  0.38571061  0.49970621    -0.17200
C819        C  0.85889214  0.38806948  0.54220218     0.11200
C820        C  0.88546231  0.37344971  0.56505439    -0.06000
C821        C  0.90941660  0.35403266  0.54424368    -0.17200
C822        C  0.90868014  0.35079018  0.50178035     0.11200
S823        S  0.82574352  0.41237600  0.56467899    -0.32200
S824        S  0.94189764  0.32690065  0.47879150    -0.32200
H825        H  0.91969812  0.30678605  0.45629539     0.29200
H826        H  0.81612137  0.38634100  0.59078478     0.29200
H827        H  0.83941506  0.39881120  0.48265210     0.19800
H828        H  0.92963061  0.34201762  0.56105682     0.19800
C829        C  0.96410631  0.47628423  0.35870041    -0.06000
C830        C  0.97809284  0.48501343  0.32124369    -0.17200
C831        C  0.50925023  0.00879571  0.32054096     0.11200
C832        C  0.52370596  0.02087911  0.35703909    -0.06000
C833        C  0.50845002  0.01310594  0.39416788    -0.17200
C834        C  0.97864877  0.48868472  0.39490076     0.11200
S835        S  0.52435471  0.01968969  0.27091437    -0.32200
S836        S  0.96192042  0.48001385  0.44451265    -0.32200
H837        H  0.92824267  0.47862412  0.43156900     0.29200
H838        H  0.52518914  0.05405173  0.27966283     0.29200
H839        H  0.96740337  0.47527227  0.29333230     0.19800
H840        H  0.51866684  0.02304695  0.42233984     0.19800
C841        C  0.62912940  0.36872461  0.06207440    -0.06000
C842        C  0.64976627  0.39193186  0.04257254    -0.17200
C843        C  0.65069820  0.39414199  0.00011525     0.11200
C844        C  0.63107039  0.37219688  0.97616989    -0.06000
C845        C  0.60826381  0.35114500  0.99563549    -0.17200
C846        C  0.60698346  0.34920581  0.03821731     0.11200
S847        S  0.67761092  0.42536457  0.97846811    -0.32200
S848        S  0.57713708  0.32143950  0.06142177    -0.32200
H849        H  0.56027522  0.31211131  0.02551402     0.29200
H850        H  0.65641700  0.43201354  0.94499408     0.29200
H851        H  0.66624532  0.40765549  0.06043442     0.19800
H852        H  0.59278560  0.33474486  0.97747281     0.19800
C853        C  0.71894391  0.26770940  0.18620023    -0.06000
C854        C  0.72739628  0.25298608  0.14886599    -0.17200
C855        C  0.75542018  0.23196800  0.14528248     0.11200
C856        C  0.77553331  0.22501508  0.17989548    -0.06000
C857        C  0.76763729  0.24038555  0.21691492    -0.17200
C858        C  0.73983518  0.26163131  0.22044603     0.11200
S859        S  0.76461797  0.21571127  0.09544716    -0.32200
S860        S  0.73342950  0.28107765  0.26915165    -0.32200
H861        H  0.73048880  0.31345812  0.25279705     0.29200
H862        H  0.79968060  0.21687768  0.10034394     0.29200
H863        H  0.71227949  0.25817353  0.12209513     0.19800
H864        H  0.78294322  0.23542855  0.24357209     0.19800
C865        C  0.54513722  0.35084093  0.24237956    -0.06000
C866        C  0.53481366  0.32582619  0.26960091    -0.17200
C867        C  0.50309533  0.32701105  0.28814128     0.11200
C868        C  0.48080487  0.35389120  0.27956939    -0.06000
C869        C  0.49047517  0.37763634  0.25041623    -0.17200
C870        C  0.52202019  0.37647301  0.23181554     0.11200
S871        S  0.49270410  0.29346068  0.32220109    -0.32200
S872        S  0.53197214  0.40782116  0.19422963    -0.32200
H873        H  0.50063546  0.42420414  0.19352255     0.29200
H874        H  0.96758414  0.29615187  0.30842153     0.29200
H875        H  0.55185493  0.30553255  0.27721807     0.19800
H876        H  0.97723373  0.40514310  0.24377866     0.19800
C877        C  0.79955746  0.39157085  0.28811082    -0.06000
C878        C  0.77110298  0.40226508  0.30966349    -0.17200
C879        C  0.73887598  0.40176293  0.29195130     0.11200
C880        C  0.73471168  0.39049380  0.25153597    -0.06000
C881        C  0.76335329  0.38122604  0.22950443    -0.17200
C882        C  0.79547625  0.38167814  0.24714145     0.11200
S883        S  0.70423673  0.41610713  0.32229198    -0.32200
S884        S  0.83018880  0.36970470  0.21545886    -0.32200
H885        H  0.85262179  0.39318869  0.23183468     0.29200
H886        H  0.68454638  0.42751203  0.28936184     0.29200
H887        H  0.77389869  0.41048399  0.34087883     0.19800
H888        H  0.76059542  0.37230663  0.19857046     0.19800
O889        O  0.59991671  0.82868852  0.22031478    -0.57700
C890        C  0.69465825  0.79920479  0.18917013     0.74900
O891        O  0.64263303  0.89114028  0.12859272    -0.58900
C892        C  0.58400218  0.85575068  0.22644189     0.74900
C893        C  0.70484531  0.89105211  0.22982817     0.77300
Cd894      Cd  0.65056101  0.85569647  0.19003049     1.37500
O895        O  0.67696152  0.80542679  0.22008699    -0.57700
O896        O  0.68174787  0.87722762  0.24972346    -0.56500
C897        C  0.63325430  0.86716772  0.10594839     0.77200
O898        O  0.69985941  0.89364559  0.19188625    -0.58900
O899        O  0.68842769  0.81621977  0.15762837    -0.57400
O900        O  0.59959903  0.88229454  0.21781850    -0.57300
O901        O  0.63109966  0.83879617  0.12272352    -0.56500
O902        O  0.84409649  0.91828737  0.33327579    -0.57700
C903        C  0.93941278  0.94837281  0.36342190     0.74900
O904        O  0.89567369  0.85170240  0.41238731    -0.58900
C905        C  0.83396926  0.89515913  0.31013508     0.74900
C906        C  0.95210118  0.86433457  0.30590161     0.77300
Cd907      Cd  0.89771148  0.89147583  0.35348488     1.37500
O908        O  0.91629830  0.94819620  0.33678670    -0.57700
O909        O  0.93113458  0.88550443  0.29228346    -0.56500
C910        C  0.88227003  0.87288134  0.43611479     0.77200
O911        O  0.94513090  0.85152915  0.34008878    -0.58900
O912        O  0.94037104  0.92417687  0.38797593    -0.57400
O913        O  0.85285175  0.86957064  0.30742971    -0.57300
O914        O  0.87412269  0.90062443  0.42025587    -0.56500
O915        O  0.64687424  0.56896820  0.31592873    -0.57700
C916        C  0.55160872  0.54041443  0.35397973     0.74900
O917        O  0.59946100  0.63270127  0.40663126    -0.58900
C918        C  0.66113752  0.59624642  0.30744513     0.74900
C919        C  0.54252682  0.62588868  0.29657118     0.77300
Cd920      Cd  0.59557126  0.59570396  0.34546915     1.37500
O921        O  0.57461637  0.53959037  0.32761973    -0.57700
O922        O  0.56149770  0.60275648  0.28409835    -0.56500
C923        C  0.61226273  0.61053327  0.42977544     0.77200
O924        O  0.55130466  0.63920340  0.33001276    -0.58900
O925        O  0.55221301  0.56437096  0.37895209    -0.57400
O926        O  0.64433805  0.62260031  0.31469573    -0.57300
O927        O  0.61812652  0.58252139  0.41322488    -0.56500
O928        O  0.89591025  0.67195534  0.22879285    -0.57700
C929        C  0.80237346  0.70201348  0.18760112     0.74900
O930        O  0.84870775  0.60905250  0.13468906    -0.58900
C931        C  0.91269006  0.64510949  0.23268595     0.74900
C932        C  0.79529092  0.61402166  0.24342342     0.77300
Cd933      Cd  0.84646005  0.64526999  0.19576195     1.37500
O934        O  0.82752212  0.70319178  0.21142026    -0.57700
O935        O  0.81665085  0.63364682  0.25868881    -0.56500
C936        C  0.86036477  0.63140695  0.11147713     0.77200
O937        O  0.80181008  0.60303726  0.20823122    -0.58900
O938        O  0.79953579  0.67586444  0.16651448    -0.57400
O939        O  0.89848243  0.61848935  0.22102236    -0.57300
O940        O  0.86760389  0.65905962  0.12793985    -0.56500
O941        O  0.83003235  0.59408129  0.82084295    -0.57700
C942        C  0.79593966  0.69046296  0.85383738     0.74900
O943        O  0.88747709  0.64617646  0.91460856    -0.58900
C944        C  0.85817968  0.57976328  0.81576810     0.74900
C945        C  0.88620894  0.69989935  0.80591485     0.77300
Cd946      Cd  0.85342631  0.64689125  0.85066366     1.37500
O947        O  0.79899698  0.66989060  0.82478268    -0.57700
O948        O  0.86785348  0.67823682  0.78894322    -0.56500
C949        C  0.86527362  0.63207173  0.93593477     0.77200
O950        O  0.89415176  0.69385304  0.84258957    -0.58900
O951        O  0.81652110  0.68707000  0.88293040    -0.57400
O952        O  0.88366001  0.59718329  0.82457329    -0.57300
O953        O  0.83870955  0.62395129  0.91709591    -0.56500
O954        O  0.92747026  0.84625396  0.72651778    -0.57700
C955        C  0.95751110  0.94111647  0.68603494     0.74900
O956        O  0.86408363  0.89150778  0.63429625    -0.58900
C957        C  0.90005762  0.83105257  0.73179597     0.74900
C958        C  0.86974332  0.94925260  0.74049743     0.77300
Cd959      Cd  0.90157136  0.89685213  0.69395793     1.37500
O960        O  0.95846355  0.91743044  0.71173462    -0.57700
O961        O  0.88995110  0.92820079  0.75600854    -0.56500
C962        C  0.88624050  0.87996165  0.61057800     0.77200
O963        O  0.85958256  0.94277372  0.70477709    -0.58900
O964        O  0.93257478  0.94171726  0.66216791    -0.57400
O965        O  0.87361448  0.84690818  0.72173337    -0.57300
O966        O  0.91507394  0.87506524  0.62605984    -0.56500
O967        O  0.67741768  0.90350816  0.82838101    -0.57700
C968        C  0.70752078  0.80561339  0.85803668     0.74900
O969        O  0.61178393  0.85537550  0.90759199    -0.58900
C970        C  0.65222076  0.91468040  0.80884871     0.74900
C971        C  0.62285089  0.79601657  0.80173666     0.77300
Cd972      Cd  0.65121453  0.84979070  0.84920206     1.37500
O973        O  0.70613974  0.82678876  0.82937129    -0.57700
O974        O  0.64423142  0.81626247  0.78815917    -0.56500
C975        C  0.63418195  0.86647680  0.93170765     0.77200
O976        O  0.61002238  0.80364117  0.83573991    -0.58900
O977        O  0.68527405  0.80804768  0.88495379    -0.57400
O978        O  0.62678603  0.89586563  0.80743366    -0.57300
O979        O  0.66307570  0.87042976  0.91697709    -0.56500
O980        O  0.58288106  0.65105772  0.71948612    -0.57700
C981        C  0.54997048  0.55409426  0.69266220     0.74900
O982        O  0.64204221  0.59976712  0.62880024    -0.58900
C983        C  0.61095920  0.66409755  0.72807136     0.74900
C984        C  0.64165394  0.54367374  0.72885318     0.77300
Cd985      Cd  0.60660145  0.59825229  0.69044570     1.37500
O986        O  0.55731250  0.57170001  0.72340200    -0.57700
O987        O  0.62870705  0.56684070  0.74981398    -0.56500
C988        C  0.61943505  0.61157116  0.60539086     0.77200
O989        O  0.64429524  0.54927178  0.69118320    -0.58900
O990        O  0.56490323  0.56142505  0.66020157    -0.57400
O991        O  0.63652940  0.64618796  0.72067587    -0.57300
O992        O  0.59187772  0.61929668  0.62200009    -0.56500
C993        C  0.65235029  0.94777465  0.78829786    -0.06000
C994        C  0.64044663  0.94985568  0.74816382    -0.17200
C995        C  0.63908170  0.98040504  0.72732762     0.11200
C996        C  0.64882027  0.01022790  0.74723384    -0.06000
C997        C  0.66126629  0.00811026  0.78720543    -0.17200
C998        C  0.66336192  0.97734138  0.80775949     0.11200
S999        S  0.62146008  0.98015175  0.67676527    -0.32200
S1000       S  0.67776906  0.97789652  0.85976906    -0.32200
H1001       H  0.65410373  0.95467233  0.87338456     0.29200
H1002       H  0.64978142  0.99505067  0.65938088     0.29200
H1003       H  0.63195040  0.92737585  0.73284528     0.19800
H1004       H  0.67130382  0.53155300  0.80141692     0.19800
C1005       C  0.61361514  0.69844064  0.74564072    -0.06000
C1006       C  0.58695383  0.71133370  0.76882872    -0.17200
C1007       C  0.58824145  0.74339889  0.78634904     0.11200
C1008       C  0.61669759  0.76366762  0.78034881    -0.06000
C1009       C  0.64287849  0.75103284  0.75623996    -0.17200
C1010       C  0.64194860  0.71885705  0.73930911     0.11200
S1011       S  0.55273389  0.75684448  0.81572421    -0.32200
S1012       S  0.67723181  0.70473776  0.70944621    -0.32200
H1013       H  0.69646231  0.73398900  0.71227005     0.29200
H1014       H  0.55346041  0.79007918  0.80178963     0.29200
H1015       H  0.56500259  0.69612609  0.77381744     0.19800
H1016       H  0.66499837  0.76606058  0.75184575     0.19800
C1017       C  0.98263667  0.96822299  0.68582793    -0.06000
C1018       C  0.99822505  0.97679362  0.72276223    -0.17200
C1019       C  0.52091573  0.50622898  0.72957866     0.11200
C1020       C  0.52666448  0.52527388  0.69397036    -0.06000
C1021       C  0.51276282  0.51414223  0.65705616    -0.17200
C1022       C  0.98863403  0.98817408  0.65110688     0.11200
S1023       S  0.54080473  0.51494974  0.77773056    -0.32200
S1024       S  0.97214781  0.97855142  0.60131440    -0.32200
H1025       H  0.97649119  0.94376715  0.60544949     0.29200
H1026       H  0.57302093  0.51782499  0.76107377     0.29200
H1027       H  0.99381510  0.96189490  0.74969586     0.19800
H1028       H  0.51790279  0.52747970  0.62919996     0.19800
C1029       C  0.77130578  0.71846885  0.85395006    -0.06000
C1030       C  0.76331513  0.73310219  0.89154383    -0.17200
C1031       C  0.74393357  0.76230879  0.89397203     0.11200
C1032       C  0.73170406  0.77747866  0.85795299    -0.06000
C1033       C  0.73920594  0.76270145  0.82041636    -0.17200
C1034       C  0.75883940  0.73366519  0.81792787     0.11200
S1035       S  0.73670988  0.77938094  0.94386772    -0.32200
S1036       S  0.76782914  0.71826505  0.76778137    -0.32200
H1037       H  0.80270465  0.71810085  0.77435780     0.29200
H1038       H  0.73827272  0.81299610  0.93149748     0.29200
H1039       H  0.77291701  0.72209262  0.91949964     0.19800
H1040       H  0.72928202  0.77365449  0.79258006     0.19800
C1041       C  0.86114093  0.54458682  0.80047836    -0.06000
C1042       C  0.83489193  0.53071618  0.77715589    -0.17200
C1043       C  0.83717230  0.49815598  0.76097629     0.11200
C1044       C  0.86681393  0.47900872  0.76691464    -0.06000
C1045       C  0.89209221  0.49221921  0.79214039    -0.17200
C1046       C  0.88944422  0.52419733  0.80943665     0.11200
S1047       S  0.80104519  0.48214974  0.73440064    -0.32200
S1048       S  0.92215687  0.53781811  0.84393479    -0.32200
H1049       H  0.93986457  0.50731951  0.84631401     0.29200
H1050       H  0.80082043  0.95851126  0.73046283     0.29200
H1051       H  0.81239335  0.54535455  0.77135439     0.19800
H1052       H  0.91476881  0.47776239  0.79743269     0.19800
C1053       C  0.89442793  0.73194182  0.78471143    -0.06000
C1054       C  0.87487956  0.74067777  0.75043026    -0.17200
C1055       C  0.87673467  0.77228168  0.73236381     0.11200
C1056       C  0.89888696  0.79642601  0.74834503    -0.06000
C1057       C  0.91986008  0.78737849  0.78117852    -0.17200
C1058       C  0.91771134  0.75563664  0.79979676     0.11200
S1059       S  0.85021677  0.77995971  0.68860460    -0.32200
S1060       S  0.94483400  0.74606525  0.84257691    -0.32200
H1061       H  0.96068292  0.77730092  0.84499691     0.29200
H1062       H  0.87397665  0.79891821  0.66744543     0.29200
H1063       H  0.85710265  0.72302687  0.73800023     0.19000
H1064       H  0.93722047  0.80566403  0.79303226     0.19800
C1065       C  0.86416546  0.62651578  0.06705936    -0.06000
C1066       C  0.89176914  0.64075892  0.04749165    -0.17200
C1067       C  0.89469317  0.64022516  0.00500230     0.11200
C1068       C  0.86848061  0.62670210  0.98083771    -0.06000
C1069       C  0.84200447  0.61056205  0.00079522    -0.17200
C1070       C  0.83955220  0.61032393  0.04322037     0.11200
S1071       S  0.93230933  0.65749686  0.98398312    -0.32200
S1072       S  0.80282188  0.59142805  0.06466680    -0.32200
H1073       H  0.79545885  0.61858803  0.09032915     0.29200
H1074       H  0.93761703  0.63028553  0.95764202     0.29200
H1075       H  0.91125601  0.65253971  0.06551195     0.19800
H1076       H  0.82190838  0.59937884  0.98320190     0.19800
C1077       C  0.61911180  0.61562462  0.47417695    -0.06000
C1078       C  0.63787062  0.59088573  0.49490681    -0.17200
C1079       C  0.64072181  0.59047730  0.53737981     0.11200
C1080       C  0.62378115  0.61493238  0.56064833    -0.06000
C1081       C  0.60669584  0.64081310  0.54004845    -0.17200
C1082       C  0.60478458  0.64188330  0.49740018     0.11200
S1083       S  0.66316629  0.55587175  0.56001803    -0.32200
S1084       S  0.58194883  0.67634526  0.47506811    -0.32200
H1085       H  0.60801629  0.68456205  0.44838216     0.29200
H1086       H  0.68547850  0.57666263  0.58138871     0.29200
H1087       H  0.64960771  0.57077199  0.47796185     0.19800
H1088       H  0.59397506  0.66006822  0.55742261     0.19800
C1089       C  0.69616836  0.59819389  0.29203970    -0.06000
C1090       C  0.71408324  0.62732099  0.30110786    -0.17200
C1091       C  0.74678291  0.63226525  0.28736325     0.11200
C1092       C  0.76277250  0.60728852  0.26371995    -0.06000
C1093       C  0.74500250  0.57792396  0.25462936    -0.17200
C1094       C  0.71222434  0.57292028  0.26892322     0.11200
S1095       S  0.76631625  0.67193809  0.29852570    -0.32200
S1096       S  0.69154085  0.53493301  0.25426239    -0.32200
H1097       H  0.68814145  0.52397244  0.29463059     0.29200
H1098       H  0.73649091  0.69002818  0.30533433     0.29200
H1099       H  0.70233764  0.64661022  0.31921965     0.19800
H1100       H  0.75651570  0.55895723  0.23578675     0.19800
C1101       C  0.94763109  0.64463091  0.24835393    -0.06000
C1102       C  0.97190108  0.62805360  0.22512841    -0.17200
C1103       C  0.00531580  0.62519649  0.23849177     0.11200
C1104       C  0.01463519  0.63809349  0.27703388    -0.06000
C1105       C  0.99081951  0.65678980  0.29890360    -0.17200
C1106       C  0.95753562  0.66013201  0.28507960     0.11200
S1107       S  0.52896745  0.59471348  0.20775632    -0.32200
S1108       S  0.92856497  0.68232977  0.31723951    -0.32200
H1109       H  0.90086495  0.66187043  0.30878607     0.29200
H1110       H  0.50541380  0.58190481  0.17988878     0.29200
H1111       H  0.96450982  0.61715231  0.19635413     0.19800
H1112       H  0.99747648  0.66698206  0.32830376     0.19800
C1113       C  0.87778282  0.86761292  0.48063577    -0.06000
C1114       C  0.85628027  0.88984021  0.50111432    -0.17200
C1115       C  0.85664981  0.89265926  0.54348205     0.11200
C1116       C  0.87968699  0.87339399  0.56671752    -0.06000
C1117       C  0.89947589  0.84940720  0.54660002    -0.17200
C1118       C  0.89812524  0.84567004  0.50418139     0.11200
S1119       S  0.82961912  0.92392257  0.56537126    -0.32200
S1120       S  0.92440770  0.81384321  0.48217168    -0.32200
H1121       H  0.89849045  0.80106032  0.45753946     0.29200
H1122       H  0.81276638  0.90051436  0.58956585     0.29200
H1123       H  0.83994373  0.90644464  0.48383257     0.19800
H1124       H  0.91668510  0.83378703  0.56402498     0.19800
C1125       C  0.96604474  0.97350450  0.36323843    -0.06000
C1126       C  0.97941330  0.98214438  0.32546007    -0.17200
C1127       C  0.50853111  0.50403954  0.31912151     0.11200
C1128       C  0.52407057  0.51607890  0.35498067    -0.06000
C1129       C  0.51039750  0.50778154  0.39280720    -0.17200
C1130       C  0.98160660  0.98523389  0.39916556     0.11200
S1131       S  0.52234248  0.51469595  0.26890023    -0.32200
S1132       S  0.96647583  0.97558993  0.44928045    -0.32200
H1133       H  0.93239819  0.97463784  0.43798756     0.29200
H1134       H  0.52362994  0.54897213  0.27775938     0.29200
H1135       H  0.96808721  0.97256732  0.29770402     0.19800
H1136       H  0.52164817  0.51748234  0.42051205     0.19800
C1137       C  0.62743371  0.87136176  0.06159752    -0.06000
C1138       C  0.64683472  0.89477336  0.04074571    -0.17200
C1139       C  0.64725764  0.89571458  0.99825605     0.11200
C1140       C  0.62810195  0.87251081  0.97556944    -0.06000
C1141       C  0.60627929  0.85121279  0.99634536    -0.17200
C1142       C  0.60572002  0.85036398  0.03908180     0.11200
S1143       S  0.67327070  0.92684238  0.97493008    -0.32200
S1144       S  0.57743122  0.82216669  0.06431351    -0.32200
H1145       H  0.56184294  0.80950997  0.02910644     0.29200
H1146       H  0.65156475  0.93195929  0.94159073     0.29200
H1147       H  0.66299784  0.91150105  0.05757613     0.19800
H1148       H  0.59116819  0.83383436  0.97914656     0.19800
C1149       C  0.72220302  0.77441155  0.18964729    -0.06000
C1150       C  0.72827792  0.75601962  0.15420679    -0.17200
C1151       C  0.75514647  0.73350052  0.15188357     0.11200
C1152       C  0.77647460  0.72867767  0.18606959    -0.06000
C1153       C  0.77081089  0.74768552  0.22123829    -0.17200
C1154       C  0.74432897  0.77074341  0.22319548     0.11200
S1155       S  0.76110992  0.71250240  0.10398225    -0.32200
S1156       S  0.74128892  0.79584247  0.26849747    -0.32200
H1157       H  0.73534475  0.82580739  0.24727469     0.29200
H1158       H  0.79629880  0.71483254  0.10505332     0.29200
H1159       H  0.71208436  0.75942025  0.12789212     0.19800
H1160       H  0.78697021  0.74441158  0.24759707     0.19800
C1161       C  0.54908266  0.85642073  0.24277003    -0.06000
C1162       C  0.53794089  0.83002826  0.26756161    -0.17200
C1163       C  0.50585306  0.83061218  0.28530044     0.11200
C1164       C  0.48418643  0.85827779  0.27856814    -0.06000
C1165       C  0.49471632  0.88355863  0.25192332    -0.17200
C1166       C  0.52647311  0.88290578  0.23387238     0.11200
S1167       S  0.49397395  0.79508842  0.31545170    -0.32200
S1168       S  0.53713177  0.91606963  0.19896820    -0.32200
H1169       H  0.50532486  0.93145326  0.19697949     0.29200
H1170       H  0.96308704  0.79490047  0.31150948     0.29200
H1171       H  0.55441484  0.80909523  0.27364810     0.19800
H1172       H  0.97730958  0.90240309  0.24773365     0.19800
C1173       C  0.80156235  0.89805311  0.28786952    -0.06000
C1174       C  0.77261810  0.90657941  0.30965476    -0.17200
C1175       C  0.74088623  0.90745109  0.29083959     0.11200
C1176       C  0.73763910  0.89950009  0.24911262    -0.06000
C1177       C  0.76697831  0.89313767  0.22681738    -0.17200
C1178       C  0.79871818  0.89242233  0.24560682     0.11200
S1179       S  0.70553857  0.91880509  0.32176821    -0.32200
S1180       S  0.83454731  0.88409978  0.21399476    -0.32200
H1181       H  0.85711224  0.90392551  0.23630882     0.29200
H1182       H  0.68732043  0.93421330  0.28999594     0.29200
H1183       H  0.77461978  0.91182144  0.34189797     0.19800
H1184       H  0.76509691  0.88701332  0.19480853     0.19800
loop_ 
_geom_bond_atom_site_label_1 
_geom_bond_atom_site_label_2 
_geom_bond_distance 
_geom_bond_site_symmetry_2 
_ccdc_geom_bond_type 
O1            C4   1.266       .  A
O1           Cd6   2.488       .  S
C2           O11   1.263       .  A
C2            O7   1.267       .  A
C2          C261   1.476       .  S
O3            C9   1.271       .  A
O3           Cd6   2.501       .  S
C4           O12   1.268       .  A
C4          C273   1.491       .  S
C5           O10   1.270       .  A
C5            O8   1.262       .  A
C5          C288   1.495       .  S
Cd6          O13   2.447       .  S
Cd6          O12   2.475       .  S
Cd6          O11   2.436       .  S
Cd6           O7   2.466       .  S
Cd6          O10   2.523       .  S
Cd6           O8   2.433       .  S
C9           O13   1.265       .  A
C9          C249   1.489       .  S
O14          C17   1.265       .  A
O14         Cd19   2.471       .  S
C15          O24   1.262       .  A
C15          O20   1.267       .  A
C15         C237   1.466       .  S
O16          C22   1.271       .  A
O16         Cd19   2.486       .  S
C17          O25   1.269       .  A
C17         C285   1.484       .  S
C18          O23   1.269       .  A
C18          O21   1.264       .  A
C18         C868   1.498       .  S
Cd19         O26   2.434       .  S
Cd19         O25   2.490       .  S
Cd19         O24   2.419       .  S
Cd19         O20   2.451       .  S
Cd19         O23   2.530       .  S
Cd19         O21   2.451       .  S
C22          O26   1.267       .  A
C22         C225   1.493       .  S
O27          C30   1.268       .  A
O27         Cd32   2.482       .  S
C28          O37   1.264       .  A
C28          O33   1.269       .  A
C28         C240   1.472       .  S
O29          C35   1.271       .  A
O29         Cd32   2.484       .  S
C30          O38   1.268       .  A
C30         C201   1.485       .  S
C31          O36   1.272       .  A
C31          O34   1.261       .  A
C31         C808   1.497       .  S
Cd32         O39   2.434       .  S
Cd32         O38   2.455       .  S
Cd32         O37   2.416       .  S
Cd32         O33   2.463       .  S
Cd32         O36   2.524       .  S
Cd32         O34   2.424       .  S
C35          O39   1.267       .  A
C35         C189   1.494       .  S
O40          C43   1.267       .  A
O40         Cd45   2.489       .  S
C41          O50   1.262       .  A
C41          O46   1.268       .  A
C41         C264   1.472       .  S
O42          C48   1.271       .  A
O42         Cd45   2.474       .  S
C43          O51   1.268       .  A
C43         C213   1.484       .  S
C44          O49   1.269       .  A
C44          O47   1.262       .  A
C44         C204   1.496       .  S
Cd45         O52   2.437       .  S
Cd45         O51   2.464       .  S
Cd45         O50   2.434       .  S
Cd45         O46   2.464       .  S
Cd45         O49   2.505       .  S
Cd45         O47   2.440       .  S
C48          O52   1.267       .  A
C48         C177   1.484       .  S
O53          C56   1.267       .  A
O53         Cd58   2.497       .  S
C54          O63   1.262       .  A
C54          O59   1.269       .  A
C54         C141   1.475       .  S
O55          C61   1.269       .  A
O55         Cd58   2.490       .  S
C56          O64   1.268       .  A
C56         C153   1.496       .  S
C57          O62   1.268       .  A
C57          O60   1.265       .  A
C57         C165   1.499       .  S
Cd58         O65   2.441       .  S
Cd58         O64   2.476       .  S
Cd58         O63   2.422       .  S
Cd58         O59   2.478       .  S
Cd58         O62   2.519       .  S
Cd58         O60   2.451       .  S
C61          O65   1.266       .  A
C61         C180   1.493       .  S
O66          C69   1.267       .  A
O66         Cd71   2.506       .  S
C67          O76   1.262       .  A
C67          O72   1.269       .  A
C67         C129   1.482       .  S
O68          C74   1.269       .  A
O68         Cd71   2.483       .  S
C69          O77   1.268       .  A
C69         C168   1.493       .  S
C70          O75   1.268       .  A
C70          O73   1.264       .  A
C70         C452   1.489       .  S
Cd71         O78   2.451       .  S
Cd71         O77   2.484       .  S
Cd71         O76   2.431       .  S
Cd71         O72   2.498       .  S
Cd71         O75   2.510       .  S
Cd71         O73   2.439       .  S
C74          O78   1.267       .  A
C74         C228   1.483       .  S
O79          C82   1.267       .  A
O79         Cd84   2.493       .  S
C80          O89   1.263       .  A
C80          O85   1.269       .  A
C80         C144   1.471       .  S
O81          C87   1.274       .  A
O81         Cd84   2.509       .  S
C82          O90   1.269       .  A
C82         C105   1.486       .  S
C83          O88   1.273       .  A
C83          O86   1.265       .  A
C83         C120   1.495       .  S
Cd84         O91   2.437       .  S
Cd84         O90   2.491       .  S
Cd84         O89   2.427       .  S
Cd84         O85   2.457       .  S
Cd84         O88   2.532       .  S
Cd84         O86   2.433       .  S
C87          O91   1.265       .  A
C87         C252   1.491       .  S
O92          C95   1.268       .  A
O92         Cd97   2.501       .  S
C93         O102   1.261       .  A
C93          O98   1.267       .  A
C93         C132   1.479       .  S
O94         C100   1.268       .  A
O94         Cd97   2.471       .  S
C95         O103   1.267       .  A
C95         C117   1.500       .  S
C96         O101   1.266       .  A
C96          O99   1.265       .  A
C96         C404   1.485       .  S
Cd97        O104   2.461       .  S
Cd97        O103   2.476       .  S
Cd97        O102   2.435       .  S
Cd97         O98   2.487       .  S
Cd97        O101   2.478       .  S
Cd97         O99   2.473       .  S
C100        O104   1.267       .  A
C100        C192   1.484       .  S
C105        C106   1.401       .  A
C105        C110   1.417       .  A
C106        C107   1.401       .  A
C106        H115   1.084       .  S
C107        C108   1.415       .  A
C107        S111   1.801       .  S
C108        C392   1.483       .  S
C108        C109   1.404       .  A
C109        C110   1.406       .  A
C109        H412   1.084       .  S
C110        S112   1.801       .  S
S111        H114   1.407       .  S
S112        H113   1.405       .  S
H116        C405   1.083       .  S
C117        C118   1.412       .  A
C117        C122   1.418       .  A
C118        C119   1.409       .  A
C118        H127   1.083       .  S
C119        C120   1.413       .  A
C119        S123   1.801       .  S
C120        C121   1.407       .  A
C121        C122   1.404       .  A
C121        H128   1.082       .  S
C122        S124   1.810       .  S
S123        H126   1.407       .  S
S124        H125   1.407       .  S
C129        C130   1.405       .  A
C129        C134   1.413       .  A
C130       C1019   1.404       .  A
C130        H139   1.083       .  S
C131        C132   1.415       .  A
C131       C1018   1.399   1_445  A
C131        S135   1.801       .  S
C132        C133   1.403       .  A
C133       C1022   1.399   1_445  A
C133        H140   1.084       .  S
C134       C1021   1.398       .  A
C134        S136   1.804       .  S
S135        H138   1.406       .  S
S136        H137   1.408       .  S
C141        C142   1.405       .  A
C141        C146   1.414       .  A
C142        C143   1.399       .  A
C142        H151   1.083       .  S
C143        C144   1.411       .  A
C143        S147   1.803       .  S
C144        C145   1.402       .  A
C145        C146   1.397       .  A
C145        H152   1.083       .  S
C146        S148   1.801       .  S
S147        H150   1.407       .  S
S148        H149   1.405       .  S
C153        C154   1.409       .  A
C153        C158   1.416       .  A
C154        C155   1.408       .  A
C154        H163   1.083       .  S
C155        C156   1.416   1_545  A
C155        S159   1.801   1_545  S
C156        C366   1.495       .  S
C156        C157   1.407       .  A
C157        C158   1.404   1_565  A
C157        H164   1.081       .  S
C158        S160   1.810       .  S
S159        H458   1.407       .  S
S160        H161   1.407       .  S
H162        S455   1.407       .  S
C165        C166   1.408       .  A
C165        C170   1.419       .  A
C166        C167   1.399       .  A
C166        H175   1.083       .  S
C167        C168   1.413       .  A
C167        S171   1.803       .  S
C168        C169   1.408       .  A
C169        C170   1.414       .  A
C169        H176   1.082       .  S
C170        S172   1.807       .  S
S171        H174   1.407       .  S
S172        H173   1.407       .  S
C177        C178   1.406       .  A
C177        C182   1.413       .  A
C178        C179   1.402       .  A
C178        H187   1.083       .  S
C179        C180   1.417   1_554  A
C179        S183   1.800   1_554  S
C180        C181   1.408   1_556  A
C181        C182   1.400       .  A
C181        H188   1.083   1_554  S
C182        S184   1.802       .  S
S183        H186   1.408       .  S
S184        H185   1.408       .  S
C189        C190   1.409       .  A
C189        C194   1.417       .  A
C190        C191   1.400       .  A
C190        H199   1.083       .  S
C191        C192   1.413       .  A
C191        S195   1.801       .  S
C192        C193   1.405       .  A
C193        C194   1.404       .  A
C193        H200   1.083       .  S
C194        S196   1.800       .  S
S195        H198   1.407       .  S
S196        H197   1.408       .  S
C201        C202   1.402       .  A
C201        C206   1.413       .  A
C202        C203   1.404       .  A
C202        H211   1.081       .  S
C203        C204   1.422       .  A
C203        S207   1.811       .  S
C204        C205   1.409       .  A
C205        C206   1.405       .  A
C205        H212   1.082       .  S
C206        S208   1.802       .  S
S207        H210   1.406       .  S
S208        H209   1.407       .  S
C213        C214   1.401       .  A
C213        C218   1.413       .  A
C214        C215   1.404       .  A
C214        H223   1.082       .  S
C215        C216   1.420       .  A
C215        S811   1.809       .  S
C216        C623   1.497       .  S
C216        C217   1.409       .  A
C217        C218   1.406       .  A
C217        H224   1.082       .  S
C218        S220   1.803       .  S
S219        C807   1.810       .  S
S219        H222   1.407       .  S
S220        H221   1.406       .  S
C225        C226   1.409       .  A
C225        C230   1.417       .  A
C226        C227   1.401       .  A
C226        H235   1.082       .  S
C227        C228   1.412       .  A
C227        S231   1.800       .  S
C228        C229   1.404       .  A
C229        C230   1.403       .  A
C229        H236   1.083       .  S
C230        S232   1.799       .  S
S231        H234   1.406       .  S
S232        H233   1.407       .  S
C237        C238   1.400       .  A
C237        C242   1.411       .  A
C238       C1127   1.395       .  A
C238        H247   1.086       .  S
C239        C240   1.413       .  A
C239       C1126   1.394   1_445  A
C239        S243   1.799       .  S
C240        C241   1.404       .  A
C241       C1130   1.398   1_445  A
C241        H248   1.086       .  S
C242       C1129   1.397       .  A
C242        S244   1.804       .  S
S243        H246   1.404       .  S
S244        H245   1.407       .  S
C249        C250   1.403       .  A
C249        C254   1.416       .  A
C250        C251   1.402   1_554  A
C250        H259   1.085       .  S
C251        C252   1.419       .  A
C251        S255   1.802       .  S
C252        C253   1.404       .  A
C253        C254   1.407   1_556  A
C253        H260   1.085       .  S
C254        S256   1.806       .  S
S255        H258   1.405       .  S
S256        H257   1.407       .  S
C261        C262   1.405       .  A
C261        C266   1.415       .  A
C262        C263   1.399       .  A
C262        H271   1.082       .  S
C263        C264   1.412       .  A
C263        S267   1.804       .  S
C264        C265   1.402       .  A
C265        C266   1.397       .  A
C265        H272   1.083       .  S
C266        S268   1.802       .  S
S267        H270   1.407       .  S
S268        H269   1.407       .  S
C273        C274   1.408       .  A
C273        C278   1.412       .  A
C274        C275   1.408       .  A
C274        H283   1.085       .  S
C275        C276   1.418   1_455  A
C275        S279   1.801   1_455  S
C276        C610   1.498       .  S
C276        C277   1.410       .  A
C277        C278   1.402   1_655  A
C277        H876   1.082       .  S
C278        S280   1.810       .  S
S279        H874   1.407       .  S
S280        H281   1.407       .  S
H282        S871   1.407       .  S
H284        C869   1.083       .  S
C285        C286   1.401       .  A
C285        C290   1.414       .  A
C286        C287   1.402       .  A
C286        H295   1.084       .  S
C287        C288   1.420       .  A
C287        S291   1.803       .  S
C288        C289   1.408       .  A
C289        C290   1.405       .  A
C289        H296   1.084       .  S
C290        S292   1.803       .  S
S291        H294   1.408       .  S
S292        H293   1.407       .  S
O297        C300   1.267       .  A
O297       Cd302   2.495       .  S
C298        O307   1.263       .  A
C298        O303   1.268       .  A
C298        C557   1.473       .  S
O299        C305   1.271       .  A
O299       Cd302   2.483       .  S
C300        O308   1.267       .  A
C300        C569   1.490       .  S
C301        O306   1.271       .  A
C301        O304   1.261       .  A
C301        C584   1.492       .  S
Cd302       O309   2.440       .  S
Cd302       O308   2.463       .  S
Cd302       O307   2.435       .  S
Cd302       O303   2.461       .  S
Cd302       O306   2.520       .  S
Cd302       O304   2.415       .  S
C305        O309   1.266       .  A
C305        C545   1.487       .  S
O310        C313   1.265       .  A
O310       Cd315   2.483       .  S
C311        O320   1.262       .  A
C311        O316   1.267       .  A
C311        C533   1.470       .  S
O312        C318   1.271       .  A
O312       Cd315   2.485       .  S
C313        O321   1.269       .  A
C313        C581   1.484       .  S
C314        O319   1.268       .  A
C314        O317   1.263       .  A
C314       C1164   1.497       .  S
Cd315       O322   2.443       .  S
Cd315       O321   2.479       .  S
Cd315       O320   2.427       .  S
Cd315       O316   2.453       .  S
Cd315       O319   2.540       .  S
Cd315       O317   2.453       .  S
C318        O322   1.267       .  A
C318        C521   1.493       .  S
O323        C326   1.266       .  A
O323       Cd328   2.489       .  S
C324        O333   1.263       .  A
C324        O329   1.267       .  A
C324        C536   1.477       .  S
O325        C331   1.269       .  A
O325       Cd328   2.502       .  S
C326        O334   1.267       .  A
C326        C497   1.480       .  S
C327        O332   1.272       .  A
C327        O330   1.263       .  A
C327       C1104   1.491       .  S
Cd328       O335   2.440       .  S
Cd328       O334   2.479       .  S
Cd328       O333   2.439       .  S
Cd328       O329   2.475       .  S
Cd328       O332   2.508       .  S
Cd328       O330   2.420       .  S
C331        O335   1.266       .  A
C331        C485   1.493       .  S
O336        C339   1.267       .  A
O336       Cd341   2.497       .  S
C337        O346   1.262       .  A
C337        O342   1.268       .  A
C337        C560   1.479       .  S
O338        C344   1.270       .  A
O338       Cd341   2.479       .  S
C339        O347   1.267       .  A
C339        C509   1.485       .  S
C340        O345   1.266       .  A
C340        O343   1.265       .  A
C340        C500   1.487       .  S
Cd341       O348   2.426       .  S
Cd341       O347   2.459       .  S
Cd341       O346   2.437       .  S
Cd341       O342   2.458       .  S
Cd341       O345   2.483       .  S
Cd341       O343   2.477       .  S
C344        O348   1.266       .  A
C344        C473   1.484       .  S
O349        C352   1.268       .  A
O349       Cd354   2.500       .  S
C350        O359   1.263       .  A
C350        O355   1.269       .  A
C350        C437   1.475       .  S
O351        C357   1.270       .  A
O351       Cd354   2.485       .  S
C352        O360   1.267       .  A
C352        C449   1.495       .  S
C353        O358   1.269       .  A
C353        O356   1.265       .  A
C353        C461   1.502       .  S
Cd354       O361   2.434       .  S
Cd354       O360   2.465       .  S
Cd354       O359   2.424       .  S
Cd354       O355   2.469       .  S
Cd354       O358   2.520       .  S
Cd354       O356   2.456       .  S
C357        O361   1.266       .  A
C357        C476   1.485       .  S
O362        C365   1.268       .  A
O362       Cd367   2.521       .  S
C363        O372   1.262       .  A
C363        O368   1.270       .  A
C363        C425   1.479       .  S
O364        C370   1.270       .  A
O364       Cd367   2.490       .  S
C365        O373   1.269       .  A
C365        C464   1.495       .  S
C366        O371   1.268       .  A
C366        O369   1.266       .  A
Cd367       O374   2.439       .  S
Cd367       O373   2.482       .  S
Cd367       O372   2.424       .  S
Cd367       O368   2.486       .  S
Cd367       O371   2.508       .  S
Cd367       O369   2.442       .  S
C370        O374   1.267       .  A
C370        C524   1.485       .  S
O375        C378   1.266       .  A
O375       Cd380   2.481       .  S
C376        O385   1.264       .  A
C376        O381   1.269       .  A
C376        C440   1.472       .  S
O377        C383   1.273       .  A
O377       Cd380   2.497       .  S
C378        O386   1.268       .  A
C378        C401   1.481       .  S
C379        O384   1.273       .  A
C379        O382   1.264       .  A
C379        C416   1.493       .  S
Cd380       O387   2.430       .  S
Cd380       O386   2.486       .  S
Cd380       O385   2.434       .  S
Cd380       O381   2.453       .  S
Cd380       O384   2.537       .  S
Cd380       O382   2.420       .  S
C383        O387   1.264       .  A
C383        C548   1.489       .  S
O388        C391   1.268       .  A
O388       Cd393   2.503       .  S
C389        O398   1.262       .  A
C389        O394   1.267       .  A
C389        C428   1.479       .  S
O390        C396   1.269       .  A
O390       Cd393   2.476       .  S
C391        O399   1.266       .  A
C391        C413   1.498       .  S
C392        O397   1.267       .  A
C392        O395   1.265       .  A
Cd393       O400   2.451       .  S
Cd393       O399   2.463       .  S
Cd393       O398   2.443       .  S
Cd393       O394   2.483       .  S
Cd393       O397   2.480       .  S
Cd393       O395   2.462       .  S
C396        O400   1.267       .  A
C396        C488   1.490       .  S
C401        C402   1.400       .  A
C401        C406   1.415       .  A
C402        C403   1.401       .  A
C402        H411   1.084       .  S
C403        C404   1.416   1_565  A
C403        S407   1.800       .  S
C404        C405   1.405       .  A
C405        C406   1.406   1_545  A
C406        S408   1.802       .  S
S407        H410   1.407       .  S
S408        H409   1.406       .  S
C413        C414   1.412       .  A
C413        C418   1.418       .  A
C414        C415   1.409       .  A
C414        H423   1.082       .  S
C415        C416   1.413       .  A
C415        S419   1.801       .  S
C416        C417   1.406       .  A
C417        C418   1.402       .  A
C417        H424   1.082       .  S
C418        S420   1.811       .  S
S419        H422   1.406       .  S
S420        H421   1.406       .  S
C425        C426   1.403       .  A
C425        C430   1.414       .  A
C426        C723   1.400   1_565  A
C426        H435   1.084       .  S
C427        C722   1.399       .  A
C427        C428   1.416       .  A
C427        S431   1.801       .  S
C428        C429   1.403       .  A
C429        C726   1.400   1_455  A
C429        H436   1.084       .  S
C430        C725   1.399   1_565  A
C430        S432   1.804       .  S
S431        H434   1.402       .  S
S432        H433   1.407       .  S
C437        C438   1.405       .  A
C437        C442   1.413       .  A
C438        C439   1.399       .  A
C438        H447   1.085       .  S
C439        C440   1.413       .  A
C439        S443   1.803       .  S
C440        C441   1.402       .  A
C441        C442   1.396       .  A
C441        H448   1.084       .  S
C442        S444   1.801       .  S
S443        H446   1.407       .  S
S444        H445   1.405       .  S
C449        C450   1.410       .  A
C449        C454   1.417       .  A
C450        C451   1.408       .  A
C450        H459   1.083       .  S
C451        C452   1.414       .  A
C451        S455   1.802       .  S
C452        C453   1.405       .  A
C453        C454   1.402       .  A
C453        H460   1.082       .  S
C454        S456   1.810       .  S
S456        H457   1.407       .  S
C461        C462   1.408       .  A
C461        C466   1.420       .  A
C462        C463   1.400       .  A
C462        H471   1.083       .  S
C463        C464   1.413       .  A
C463        S467   1.803       .  S
C464        C465   1.408       .  A
C465        C466   1.416       .  A
C465        H472   1.082       .  S
C466        S468   1.807       .  S
S467        H470   1.408       .  S
S468        H469   1.406       .  S
C473        C474   1.406       .  A
C473        C478   1.415       .  A
C474        C475   1.400       .  A
C474        H483   1.085       .  S
C475        C476   1.414   1_554  A
C475        S479   1.800   1_554  S
C476        C477   1.406       .  A
C477        C478   1.400   1_556  A
C477        H484   1.084       .  S
C478        S480   1.801       .  S
S479        H482   1.407       .  S
S480        H481   1.407       .  S
C485        C486   1.407       .  A
C485        C490   1.416       .  A
C486        C487   1.400       .  A
C486        H495   1.085       .  S
C487        C488   1.415       .  A
C487        S491   1.800       .  S
C488        C489   1.407       .  A
C489        C490   1.403       .  A
C489        H496   1.085       .  S
C490        S492   1.799       .  S
S491        H494   1.407       .  S
S492        H493   1.407       .  S
C497        C498   1.404       .  A
C497        C502   1.411       .  A
C498        C499   1.409       .  A
C498        H507   1.083       .  S
C499        C500   1.414       .  A
C499        S503   1.807       .  S
C500        C501   1.406       .  A
C501        C502   1.401       .  A
C501        H508   1.085       .  S
C502        S504   1.804       .  S
S503        H506   1.407       .  S
S504        H505   1.407       .  S
C509        C510   1.401       .  A
C509        C514   1.413       .  A
C510        C511   1.404       .  A
C510        H519   1.084       .  S
C511        C512   1.422       .  A
C511       S1107   1.810       .  S
C512        C919   1.498       .  S
C512        C513   1.410       .  A
C513        C514   1.406       .  A
C513        H520   1.085       .  S
C514        S516   1.802       .  S
S515       C1103   1.809       .  S
S515        H518   1.407       .  S
S516        H517   1.407       .  S
C521        C522   1.410       .  A
C521        C526   1.417       .  A
C522        C523   1.402       .  A
C522        H531   1.083       .  S
C523        C524   1.413       .  A
C523        S527   1.800       .  S
C524        C525   1.404       .  A
C525        C526   1.401       .  A
C525        H532   1.084       .  S
C526        S528   1.799       .  S
S527        H530   1.407       .  S
S528        H529   1.407       .  S
C533        C534   1.401       .  A
C533        C538   1.413       .  A
C534        C831   1.394   1_565  A
C534        H543   1.087       .  S
C535        C830   1.398   1_455  A
C535        C536   1.415       .  A
C535        S539   1.800       .  S
C536        C537   1.404       .  A
C537        C834   1.399   1_455  A
C537        H544   1.083       .  S
C538        C833   1.399   1_565  A
C538        S540   1.804       .  S
S539        H542   1.405       .  S
S540        H541   1.407       .  S
C545        C546   1.403       .  A
C545        C550   1.416       .  A
C546        C547   1.400       .  A
C546        H555   1.085       .  S
C547        C548   1.419   1_554  A
C547        S551   1.803   1_554  S
C548        C549   1.404   1_556  A
C549        C550   1.406       .  A
C549        H556   1.084   1_554  S
C550        S552   1.808       .  S
S551        H554   1.406       .  S
S552        H553   1.407       .  S
C557        C558   1.402       .  A
C557        C562   1.412       .  A
C558        C559   1.399       .  A
C558        H567   1.084       .  S
C559        C560   1.418       .  A
C559        S563   1.803       .  S
C560        C561   1.403       .  A
C561        C562   1.395       .  A
C561        H568   1.084       .  S
C562        S564   1.800       .  S
S563        H566   1.407       .  S
S564        H565   1.405       .  S
C569        C570   1.408       .  A
C569        C574   1.413       .  A
C570        C571   1.407       .  A
C570        H579   1.083       .  S
C571        C572   1.416   1_455  A
C571        S575   1.801   1_455  S
C572        C906   1.495       .  S
C572        C573   1.408       .  A
C573        C574   1.403   1_655  A
C573       H1172   1.080       .  S
C574        S576   1.810       .  S
S575       H1170   1.407       .  S
S576        H577   1.407       .  S
H578       S1167   1.407       .  S
H580       C1165   1.078       .  S
C581        C582   1.401       .  A
C581        C586   1.416       .  A
C582        C583   1.399       .  A
C582        H591   1.085       .  S
C583        C584   1.419       .  A
C583        S587   1.803       .  S
C584        C585   1.407       .  A
C585        C586   1.406       .  A
C585        H592   1.085       .  S
C586        S588   1.802       .  S
S587        H590   1.408       .  S
S588        H589   1.406       .  S
O593        C596   1.268       .  A
O593       Cd598   2.514       .  S
C594        O603   1.262       .  A
C594        O599   1.267       .  A
C594        C853   1.480       .  S
O595        C601   1.271       .  A
O595       Cd598   2.491       .  S
C596        O604   1.268       .  A
C596        C865   1.496       .  S
C597        O602   1.266       .  A
C597        O600   1.265       .  A
C597        C880   1.487       .  S
Cd598       O605   2.436       .  S
Cd598       O604   2.479       .  S
Cd598       O603   2.439       .  S
Cd598       O599   2.469       .  S
Cd598       O602   2.480       .  S
Cd598       O600   2.493       .  S
C601        O605   1.266       .  A
C601        C841   1.487       .  S
O606        C609   1.265       .  A
O606       Cd611   2.484       .  S
C607        O616   1.262       .  A
C607        O612   1.268       .  A
C607        C829   1.473       .  S
O608        C614   1.271       .  A
O608       Cd611   2.503       .  S
C609        O617   1.269       .  A
C609        C877   1.489       .  S
C610        O615   1.271       .  A
C610        O613   1.265       .  A
Cd611       O618   2.436       .  S
Cd611       O617   2.508       .  S
Cd611       O616   2.428       .  S
Cd611       O612   2.473       .  S
Cd611       O615   2.518       .  S
Cd611       O613   2.423       .  S
C614        O618   1.266       .  A
C614        C817   1.490       .  S
O619        C622   1.268       .  A
O619       Cd624   2.499       .  S
C620        O629   1.263       .  A
C620        O625   1.269       .  A
C620        C832   1.477       .  S
O621        C627   1.270       .  A
O621       Cd624   2.490       .  S
C622        O630   1.269       .  A
C622        C793   1.491       .  S
C623        O628   1.271       .  A
C623        O626   1.263       .  A
Cd624       O631   2.438       .  S
Cd624       O630   2.458       .  S
Cd624       O629   2.433       .  S
Cd624       O625   2.467       .  S
Cd624       O628   2.513       .  S
Cd624       O626   2.432       .  S
C627        O631   1.267       .  A
C627        C781   1.495       .  S
O632        C635   1.267       .  A
O632       Cd637   2.480       .  S
C633        O642   1.262       .  A
C633        O638   1.269       .  A
C633        C856   1.476       .  S
O634        C640   1.270       .  A
O634       Cd637   2.475       .  S
C635        O643   1.269       .  A
C635        C805   1.484       .  S
C636        O641   1.269       .  A
C636        O639   1.263       .  A
C636        C796   1.492       .  S
Cd637       O644   2.439       .  S
Cd637       O643   2.471       .  S
Cd637       O642   2.424       .  S
Cd637       O638   2.475       .  S
Cd637       O641   2.504       .  S
Cd637       O639   2.433       .  S
C640        O644   1.266       .  A
C640        C769   1.479       .  S
O645        C648   1.269       .  A
O645       Cd650   2.504       .  S
C646        O655   1.262       .  A
C646        O651   1.269       .  A
C646        C733   1.478       .  S
O647        C653   1.270       .  A
O647       Cd650   2.475       .  S
C648        O656   1.267       .  A
C648        C745   1.495       .  S
C649        O654   1.268       .  A
C649        O652   1.265       .  A
C649        C757   1.499       .  S
Cd650       O657   2.435       .  S
Cd650       O656   2.456       .  S
Cd650       O655   2.436       .  S
Cd650       O651   2.478       .  S
Cd650       O654   2.509       .  S
Cd650       O652   2.446       .  S
C653        O657   1.267       .  A
C653        C772   1.492       .  S
O658        C661   1.267       .  A
O658       Cd663   2.504       .  S
C659        O668   1.263       .  A
C659        O664   1.270       .  A
C659        C721   1.478       .  S
O660        C666   1.269       .  A
O660       Cd663   2.488       .  S
C661        O669   1.268       .  A
C661        C760   1.488       .  S
C662        O667   1.269       .  A
C662        O665   1.265       .  A
C662       C1044   1.498       .  S
Cd663       O670   2.460       .  S
Cd663       O669   2.469       .  S
Cd663       O668   2.422       .  S
Cd663       O664   2.479       .  S
Cd663       O667   2.525       .  S
Cd663       O665   2.449       .  S
C666        O670   1.267       .  A
C666        C820   1.495       .  S
O671        C674   1.266       .  A
O671       Cd676   2.481       .  S
C672        O681   1.263       .  A
C672        O677   1.269       .  A
C672        C736   1.475       .  S
O673        C679   1.272       .  A
O673       Cd676   2.489       .  S
C674        O682   1.268       .  A
C674        C697   1.481       .  S
C675        O680   1.271       .  A
C675        O678   1.265       .  A
C675        C712   1.492       .  S
Cd676       O683   2.425       .  S
Cd676       O682   2.470       .  S
Cd676       O681   2.427       .  S
Cd676       O677   2.462       .  S
Cd676       O680   2.522       .  S
Cd676       O678   2.422       .  S
C679        O683   1.264       .  A
C679        C844   1.484       .  S
O684        C687   1.267       .  A
O684       Cd689   2.505       .  S
C685        O694   1.264       .  A
C685        O690   1.265       .  A
C685        C724   1.484       .  S
O686        C692   1.268       .  A
O686       Cd689   2.473       .  S
C687        O695   1.266       .  A
C687        C709   1.496       .  S
C688        O693   1.266       .  A
C688        O691   1.266       .  A
C688        C996   1.486       .  S
Cd689       O696   2.468       .  S
Cd689       O695   2.468       .  S
Cd689       O694   2.447       .  S
Cd689       O690   2.474       .  S
Cd689       O693   2.479       .  S
Cd689       O691   2.478       .  S
C692        O696   1.267       .  A
C692        C784   1.485       .  S
C697        C698   1.400       .  A
C697        C702   1.416       .  A
C698        C699   1.398       .  A
C698        H707   1.086       .  S
C699        C700   1.417       .  A
C699        S703   1.801       .  S
C700        C984   1.483       .  S
C700        C701   1.405       .  A
C701        C702   1.405       .  A
C701       H1004   1.084       .  S
C702        S704   1.802       .  S
S703        H706   1.407       .  S
S704        H705   1.406       .  S
H708        C997   1.085       .  S
C709        C710   1.411       .  A
C709        C714   1.417       .  A
C710        C711   1.408       .  A
C710        H719   1.084       .  S
C711        C712   1.414       .  A
C711        S715   1.801       .  S
C712        C713   1.406       .  A
C713        C714   1.402       .  A
C713        H720   1.082       .  S
C714        S716   1.811       .  S
S715        H718   1.407       .  S
S716        H717   1.407       .  S
C721        C722   1.403   1_655  A
C721        C726   1.415       .  A
C722        H731   1.084       .  S
C723        C724   1.418       .  A
C723        S727   1.801       .  S
C724        C725   1.405       .  A
C725        H732   1.084       .  S
C726        S728   1.804       .  S
S727        H730   1.406       .  S
S728        H729   1.408       .  S
C733        C734   1.405       .  A
C733        C738   1.414       .  A
C734        C735   1.400       .  A
C734        H743   1.084       .  S
C735        C736   1.414       .  A
C735        S739   1.804       .  S
C736        C737   1.403       .  A
C737        C738   1.397       .  A
C737        H744   1.083       .  S
C738        S740   1.801       .  S
S739        H742   1.407       .  S
S740        H741   1.406       .  S
C745        C746   1.409       .  A
C745        C750   1.417       .  A
C746        C747   1.408       .  A
C746        H755   1.084       .  S
C747        C748   1.416   1_545  A
C747        S751   1.801   1_545  S
C748        C958   1.493       .  S
C748        C749   1.406       .  A
C749        C750   1.402   1_565  A
C749        H756   1.082       .  S
C750        S752   1.811       .  S
S751       H1050   1.407       .  S
S752        H753   1.407       .  S
H754       S1047   1.408       .  S
C757        C758   1.408       .  A
C757        C762   1.420       .  A
C758        C759   1.398       .  A
C758        H767   1.083       .  S
C759        C760   1.411       .  A
C759        S763   1.804       .  S
C760        C761   1.406       .  A
C761        C762   1.413       .  A
C761        H768   1.082       .  S
C762        S764   1.807       .  S
S763        H766   1.407       .  S
S764        H765   1.407       .  S
C769        C770   1.404       .  A
C769        C774   1.411       .  A
C770        C771   1.402   1_554  A
C770        H779   1.085       .  S
C771        C772   1.417       .  A
C771        S775   1.801       .  S
C772        C773   1.409       .  A
C773        C774   1.399   1_556  A
C773        H780   1.083       .  S
C774        S776   1.803       .  S
S775        H778   1.408       .  S
S776        H777   1.408       .  S
C781        C782   1.408       .  A
C781        C786   1.419       .  A
C782        C783   1.399       .  A
C782        H791   1.086       .  S
C783        C784   1.413       .  A
C783        S787   1.800       .  S
C784        C785   1.405       .  A
C785        C786   1.405       .  A
C785        H792   1.086       .  S
C786        S788   1.800       .  S
S787        H790   1.407       .  S
S788        H789   1.408       .  S
C793        C794   1.402       .  A
C793        C798   1.417       .  A
C794        C795   1.401       .  A
C794        H803   1.083       .  S
C795        C796   1.420       .  A
C795        S799   1.811       .  S
C796        C797   1.407       .  A
C797        C798   1.408       .  A
C797        H804   1.084       .  S
C798        S800   1.801       .  S
S799        H802   1.406       .  S
S800        H801   1.407       .  S
C805        C806   1.401       .  A
C805        C810   1.414       .  A
C806        C807   1.404   1_655  A
C806        H815   1.085       .  S
C807        C808   1.422       .  A
C808        C809   1.408   1_455  A
C809        C810   1.405       .  A
C809        H816   1.085       .  S
C810        S812   1.802       .  S
S811        H814   1.407       .  S
S812        H813   1.407       .  S
C817        C818   1.406       .  A
C817        C822   1.414       .  A
C818        C819   1.402       .  A
C818        H827   1.084       .  S
C819        C820   1.417       .  A
C819        S823   1.800       .  S
C820        C821   1.409       .  A
C821        C822   1.404       .  A
C821        H828   1.083       .  S
C822        S824   1.800       .  S
S823        H826   1.407       .  S
S824        H825   1.407       .  S
C829        C830   1.403       .  A
C829        C834   1.412       .  A
C830        H839   1.083       .  S
C831        C832   1.415       .  A
C831        S835   1.800       .  S
C832        C833   1.405       .  A
C833        H840   1.086       .  S
C834        S836   1.804       .  S
S835        H838   1.405       .  S
S836        H837   1.407       .  S
C841        C842   1.404       .  A
C841        C846   1.416       .  A
C842        C843   1.401       .  A
C842        H851   1.083       .  S
C843        C844   1.416   1_554  A
C843        S847   1.803   1_554  S
C844        C845   1.403       .  A
C845        C846   1.405   1_556  A
C845        H852   1.081       .  S
C846        S848   1.808       .  S
S847        H850   1.407       .  S
S848        H849   1.407       .  S
C853        C854   1.405       .  A
C853        C858   1.416       .  A
C854        C855   1.399       .  A
C854        H863   1.082       .  S
C855        C856   1.414       .  A
C855        S859   1.804       .  S
C856        C857   1.402       .  A
C857        C858   1.398       .  A
C857        H864   1.082       .  S
C858        S860   1.801       .  S
S859        H862   1.407       .  S
S860        H861   1.406       .  S
C865        C866   1.409       .  A
C865        C870   1.415       .  A
C866        C867   1.410       .  A
C866        H875   1.083       .  S
C867        C868   1.417       .  A
C867        S871   1.801       .  S
C868        C869   1.408       .  A
C869        C870   1.404       .  A
C870        S872   1.810       .  S
S872        H873   1.407       .  S
C877        C878   1.407       .  A
C877        C882   1.414       .  A
C878        C879   1.407       .  A
C878        H887   1.084       .  S
C879        C880   1.414       .  A
C879        S883   1.802       .  S
C880        C881   1.406       .  A
C881        C882   1.402       .  A
C881        H888   1.084       .  S
C882        S884   1.802       .  S
S883        H886   1.407       .  S
S884        H885   1.407       .  S
O889        C892   1.268       .  A
O889       Cd894   2.511       .  S
C890        O899   1.263       .  A
C890        O895   1.267       .  A
C890       C1149   1.474       .  S
O891        C897   1.271       .  A
O891       Cd894   2.485       .  S
C892        O900   1.268       .  A
C892       C1161   1.497       .  S
C893        O898   1.267       .  A
C893        O896   1.265       .  A
C893       C1176   1.490       .  S
Cd894       O901   2.438       .  S
Cd894       O900   2.470       .  S
Cd894       O899   2.430       .  S
Cd894       O895   2.465       .  S
Cd894       O898   2.494       .  S
Cd894       O896   2.475       .  S
C897        O901   1.266       .  A
C897       C1137   1.485       .  S
O902        C905   1.265       .  A
O902       Cd907   2.471       .  S
C903        O912   1.261       .  A
C903        O908   1.267       .  A
C903       C1125   1.468       .  S
O904        C910   1.271       .  A
O904       Cd907   2.509       .  S
C905        O913   1.270       .  A
C905       C1173   1.484       .  S
C906        O911   1.270       .  A
C906        O909   1.265       .  A
Cd907       O914   2.425       .  S
Cd907       O913   2.499       .  S
Cd907       O912   2.428       .  S
Cd907       O908   2.456       .  S
Cd907       O911   2.509       .  S
Cd907       O909   2.436       .  S
C910        O914   1.265       .  A
C910       C1113   1.493       .  S
O915        C918   1.267       .  A
O915       Cd920   2.505       .  S
C916        O925   1.263       .  A
C916        O921   1.268       .  A
C916       C1128   1.474       .  S
O917        C923   1.270       .  A
O917       Cd920   2.504       .  S
C918        O926   1.269       .  A
C918       C1089   1.493       .  S
C919        O924   1.271       .  A
C919        O922   1.262       .  A
Cd920       O927   2.453       .  S
Cd920       O926   2.456       .  S
Cd920       O925   2.417       .  S
Cd920       O921   2.471       .  S
Cd920       O924   2.518       .  S
Cd920       O922   2.440       .  S
C923        O927   1.267       .  A
C923       C1077   1.499       .  S
O928        C931   1.267       .  A
O928       Cd933   2.491       .  S
C929        O938   1.261       .  A
C929        O934   1.269       .  A
C929       C1152   1.480       .  S
O930        C936   1.269       .  A
O930       Cd933   2.480       .  S
C931        O939   1.268       .  A
C931       C1101   1.482       .  S
C932        O937   1.267       .  A
C932        O935   1.264       .  A
C932       C1092   1.490       .  S
Cd933       O940   2.457       .  S
Cd933       O939   2.465       .  S
Cd933       O938   2.421       .  S
Cd933       O934   2.487       .  S
Cd933       O937   2.500       .  S
Cd933       O935   2.443       .  S
C936        O940   1.266       .  A
C936       C1065   1.484       .  S
O941        C944   1.269       .  A
O941       Cd946   2.513       .  S
C942        O951   1.262       .  A
C942        O947   1.268       .  A
C942       C1029   1.484       .  S
O943        C949   1.270       .  A
O943       Cd946   2.495       .  S
C944        O952   1.268       .  A
C944       C1041   1.499       .  S
C945        O950   1.268       .  A
C945        O948   1.266       .  A
C945       C1053   1.499       .  S
Cd946       O953   2.448       .  S
Cd946       O952   2.476       .  S
Cd946       O951   2.423       .  S
Cd946       O947   2.494       .  S
Cd946       O950   2.508       .  S
Cd946       O948   2.461       .  S
C949        O953   1.267       .  A
C949       C1068   1.497       .  S
O954        C957   1.268       .  A
O954       Cd959   2.502       .  S
C955        O964   1.262       .  A
C955        O960   1.270       .  A
C955       C1017   1.482       .  S
O956        C962   1.269       .  A
O956       Cd959   2.468       .  S
C957        O965   1.268       .  A
C957       C1056   1.489       .  S
C958        O963   1.268       .  A
C958        O961   1.265       .  A
Cd959       O966   2.461       .  S
Cd959       O965   2.474       .  S
Cd959       O964   2.429       .  S
Cd959       O960   2.485       .  S
Cd959       O963   2.504       .  S
Cd959       O961   2.443       .  S
C962        O966   1.267       .  A
C962       C1116   1.489       .  S
O967        C970   1.267       .  A
O967       Cd972   2.495       .  S
C968        O977   1.262       .  A
C968        O973   1.268       .  A
C968       C1032   1.477       .  S
O969        C975   1.272       .  A
O969       Cd972   2.503       .  S
C970        O978   1.268       .  A
C970        C993   1.486       .  S
C971        O976   1.271       .  A
C971        O974   1.265       .  A
C971       C1008   1.494       .  S
Cd972       O979   2.423       .  S
Cd972       O978   2.486       .  S
Cd972       O977   2.440       .  S
Cd972       O973   2.463       .  S
Cd972       O976   2.518       .  S
Cd972       O974   2.431       .  S
C975        O979   1.265       .  A
C975       C1140   1.485       .  S
O980        C983   1.269       .  A
O980       Cd985   2.502       .  S
C981        O990   1.263       .  A
C981        O986   1.267       .  A
C981       C1020   1.487       .  S
O982        C988   1.269       .  A
O982       Cd985   2.484       .  S
C983        O991   1.267       .  A
C983       C1005   1.495       .  S
C984        O989   1.265       .  A
C984        O987   1.265       .  A
Cd985       O992   2.469       .  S
Cd985       O991   2.472       .  S
Cd985       O990   2.437       .  S
Cd985       O986   2.497       .  S
Cd985       O989   2.461       .  S
Cd985       O987   2.475       .  S
C988        O992   1.268       .  A
C988       C1080   1.490       .  S
C993        C994   1.402       .  A
C993        C998   1.416       .  A
C994        C995   1.401       .  A
C994       H1003   1.086       .  S
C995        C996   1.417   1_565  A
C995        S999   1.801       .  S
C996        C997   1.404       .  A
C997        C998   1.406   1_545  A
C998       S1000   1.801       .  S
S999       H1002   1.407       .  S
S1000      H1001   1.405       .  S
C1005      C1006   1.409       .  A
C1005      C1010   1.416       .  A
C1006      C1007   1.408       .  A
C1006      H1015   1.084       .  S
C1007      C1008   1.415       .  A
C1007      S1011   1.801       .  S
C1008      C1009   1.408       .  A
C1009      C1010   1.404       .  A
C1009      H1016   1.082       .  S
C1010      S1012   1.810       .  S
S1011      H1014   1.407       .  S
S1012      H1013   1.407       .  S
C1017      C1018   1.404       .  A
C1017      C1022   1.417       .  A
C1018      H1027   1.084       .  S
C1019      C1020   1.419       .  A
C1019      S1023   1.801       .  S
C1020      C1021   1.405       .  A
C1021      H1028   1.082       .  S
C1022      S1024   1.803       .  S
S1023      H1026   1.407       .  S
S1024      H1025   1.407       .  S
C1029      C1030   1.407       .  A
C1029      C1034   1.416       .  A
C1030      C1031   1.399       .  A
C1030      H1039   1.085       .  S
C1031      C1032   1.413       .  A
C1031      S1035   1.803       .  S
C1032      C1033   1.403       .  A
C1033      C1034   1.399       .  A
C1033      H1040   1.086       .  S
C1034      S1036   1.800       .  S
S1035      H1038   1.407       .  S
S1036      H1037   1.406       .  S
C1041      C1042   1.410       .  A
C1041      C1046   1.416       .  A
C1042      C1043   1.410       .  A
C1042      H1051   1.083       .  S
C1043      C1044   1.416       .  A
C1043      S1047   1.801       .  S
C1044      C1045   1.407       .  A
C1045      C1046   1.404       .  A
C1045      H1052   1.083       .  S
C1046      S1048   1.809       .  S
S1048      H1049   1.407       .  S
C1053      C1054   1.408       .  A
C1053      C1058   1.419       .  A
C1054      C1055   1.400       .  A
C1054      H1063   1.082       .  S
C1055      C1056   1.413       .  A
C1055      S1059   1.804       .  S
C1056      C1057   1.406       .  A
C1057      C1058   1.413       .  A
C1057      H1064   1.082       .  S
C1058      S1060   1.807       .  S
S1059      H1062   1.407       .  S
S1060      H1061   1.407       .  S
C1065      C1066   1.405       .  A
C1065      C1070   1.413       .  A
C1066      C1067   1.404       .  A
C1066      H1075   1.084       .  S
C1067      C1068   1.419   1_554  A
C1067      S1071   1.800   1_554  S
C1068      C1069   1.409   1_556  A
C1069      C1070   1.401       .  A
C1069      H1076   1.084   1_554  S
C1070      S1072   1.803       .  S
S1071      H1074   1.408       .  S
S1072      H1073   1.407       .  S
C1077      C1078   1.408       .  A
C1077      C1082   1.419       .  A
C1078      C1079   1.402       .  A
C1078      H1087   1.085       .  S
C1079      C1080   1.414       .  A
C1079      S1083   1.800       .  S
C1080      C1081   1.406       .  A
C1081      C1082   1.406       .  A
C1081      H1088   1.085       .  S
C1082      S1084   1.799       .  S
S1083      H1086   1.407       .  S
S1084      H1085   1.407       .  S
C1089      C1090   1.402       .  A
C1089      C1094   1.418       .  A
C1090      C1091   1.399       .  A
C1090      H1099   1.082       .  S
C1091      C1092   1.418       .  A
C1091      S1095   1.810       .  S
C1092      C1093   1.408       .  A
C1093      C1094   1.409       .  A
C1093      H1100   1.082       .  S
C1094      S1096   1.799       .  S
S1095      H1098   1.407       .  S
S1096      H1097   1.407       .  S
C1101      C1102   1.402       .  A
C1101      C1106   1.413       .  A
C1102      C1103   1.403   1_655  A
C1102      H1111   1.082       .  S
C1103      C1104   1.417       .  A
C1104      C1105   1.408   1_455  A
C1105      C1106   1.405       .  A
C1105      H1112   1.082       .  S
C1106      S1108   1.803       .  S
S1107      H1110   1.407       .  S
S1108      H1109   1.406       .  S
C1113      C1114   1.407       .  A
C1113      C1118   1.417       .  A
C1114      C1115   1.399       .  A
C1114      H1123   1.084       .  S
C1115      C1116   1.414       .  A
C1115      S1119   1.800       .  S
C1116      C1117   1.407       .  A
C1117      C1118   1.405       .  A
C1117      H1124   1.085       .  S
C1118      S1120   1.800       .  S
S1119      H1122   1.407       .  S
S1120      H1121   1.408       .  S
C1125      C1126   1.401       .  A
C1125      C1130   1.413       .  A
C1126      H1135   1.087       .  S
C1127      C1128   1.415       .  A
C1127      S1131   1.799       .  S
C1128      C1129   1.404       .  A
C1129      H1136   1.086       .  S
C1130      S1132   1.804       .  S
S1131      H1134   1.403       .  S
S1132      H1133   1.407       .  S
C1137      C1138   1.402       .  A
C1137      C1142   1.416       .  A
C1138      C1139   1.399   1_554  A
C1138      H1147   1.082       .  S
C1139      C1140   1.416       .  A
C1139      S1143   1.802       .  S
C1140      C1141   1.404       .  A
C1141      C1142   1.407   1_556  A
C1141      H1148   1.081       .  S
C1142      S1144   1.808       .  S
S1143      H1146   1.406       .  S
S1144      H1145   1.407       .  S
C1149      C1150   1.401       .  A
C1149      C1154   1.414       .  A
C1150      C1151   1.397       .  A
C1150      H1159   1.084       .  S
C1151      C1152   1.417       .  A
C1151      S1155   1.803       .  S
C1152      C1153   1.404       .  A
C1153      C1154   1.399       .  A
C1153      H1160   1.083       .  S
C1154      S1156   1.802       .  S
S1155      H1158   1.407       .  S
S1156      H1157   1.405       .  S
C1161      C1162   1.411       .  A
C1161      C1166   1.415       .  A
C1162      C1163   1.411       .  A
C1162      H1171   1.078       .  S
C1163      C1164   1.415       .  A
C1163      S1167   1.801       .  S
C1164      C1165   1.407       .  A
C1165      C1166   1.404       .  A
C1166      S1168   1.810       .  S
S1168      H1169   1.407       .  S
C1173      C1174   1.404       .  A
C1173      C1178   1.413       .  A
C1174      C1175   1.404       .  A
C1174      H1183   1.084       .  S
C1175      C1176   1.415       .  A
C1175      S1179   1.801       .  S
C1176      C1177   1.408       .  A
C1177      C1178   1.404       .  A
C1177      H1184   1.084       .  S
C1178      S1180   1.804       .  S
S1179      H1182   1.407       .  S
S1180      H1181   1.407       .  S
