geometry optimzed in LAMMPS
_audit_creation_date              2020-12-01 
_audit_creation_method            'lammps2cif' 
_symmetry_space_group_name_H-M    'P1' 
_symmetry_Int_Tables_number       1 
_symmetry_cell_setting            triclinic 
loop_ 
_symmetry_equiv_pos_as_xyz 
  x,y,z 
_cell_length_a                    51.80261549 
_cell_length_b                    51.747399005841714 
_cell_length_c                    51.76504296372027 
_cell_angle_alpha                 89.93347099960633 
_cell_angle_beta                  89.86983220886009 
_cell_angle_gamma                 89.9701007831205 
loop_ 
_atom_site_label 
_atom_site_type_symbol 
_atom_site_fract_x 
_atom_site_fract_y 
_atom_site_fract_z 
_atom_site_charge 
O1          O  0.02918213  0.50909711  0.83697014    -0.73400
O2          O  0.04866403  0.47037600  0.90162937    -0.74400
O3          O  0.07495237  0.48709649  0.85702652    -0.63000
O4          O  0.00354990  0.49317659  0.88308921    -0.71400
O5          O  0.99283217  0.45548025  0.86594698    -0.71000
O6          O  0.06534008  0.45053628  0.83681862    -0.62200
O7          O  0.03991685  0.43339426  0.88173675    -0.74700
O8          O  0.01805066  0.47181609  0.81922524    -0.73500
Cu9        Cu  0.03936103  0.49130616  0.87017170     1.04600
Cu10       Cu  0.02857476  0.45160473  0.85008258     1.04300
C11         C  0.02102779  0.49620487  0.81753827     0.92800
C12         C  0.04723911  0.44568262  0.90170302     0.91900
C13         C  0.08182686  0.46762769  0.84366846     0.84100
C14         C  0.98739675  0.47481600  0.88040260     0.90400
O15         O  0.03758472  0.38742708  0.01099335    -0.73400
O16         O  0.04553470  0.35909809  0.08105493    -0.74400
O17         O  0.06244381  0.40431552  0.05578200    -0.63000
O18         O  0.02171655  0.34100913  0.03590416    -0.71400
O19         O  0.05825731  0.32219816  0.02382028    -0.71000
O20         O  0.09855549  0.38446749  0.04413078    -0.62200
O21         O  0.08184448  0.33937748  0.06997947    -0.74700
O22         O  0.07417139  0.36918699  0.99821969    -0.73500
Cu23       Cu  0.04051691  0.37350670  0.04623452     1.04600
Cu24       Cu  0.07939042  0.35296112  0.03347332     1.04300
C25         C  0.05523037  0.38456565  0.99410579     0.92800
C26         C  0.06494857  0.34528011  0.08707984     0.91900
C27         C  0.08703456  0.40430915  0.05305629     0.84100
C28         C  0.03390678  0.32121219  0.02748435     0.90400
O29         O  0.85346052  0.45125179  0.98480566    -0.73400
O30         O  0.87781121  0.52296836  0.99614971    -0.74400
O31         O  0.83270842  0.49451839  0.01131249    -0.63000
O32         O  0.89698347  0.48018155  0.96887160    -0.71400
O33         O  0.87576568  0.49151004  0.93338751    -0.71000
O34         O  0.81348252  0.50787089  0.97566773    -0.62200
O35         O  0.85861821  0.53586833  0.96014776    -0.74700
O36         O  0.83221986  0.46356260  0.94985153    -0.73500
Cu37       Cu  0.86584324  0.48683181  0.99161274     1.04600
Cu38       Cu  0.84419540  0.50021314  0.95364934     1.04300
C39         C  0.83942483  0.44574802  0.96541919     0.92800
C40         C  0.87347258  0.54043777  0.97934128     0.91900
C41         C  0.81257425  0.50316472  0.99986239     0.84100
C42         C  0.89630576  0.48367358  0.94437611     0.90400
O43         O  0.18711509  0.54106094  0.03490444    -0.73400
O44         O  0.12433204  0.56016316  0.07778750    -0.74400
O45         O  0.16869230  0.58572696  0.05952519    -0.63000
O46         O  0.14091265  0.51546531  0.05173727    -0.71400
O47         O  0.16133102  0.50181323  0.08686148    -0.71000
O48         O  0.18916013  0.57449396  0.09536836    -0.62200
O49         O  0.14531910  0.54693254  0.11268666    -0.74700
O50         O  0.20701016  0.52911128  0.07081920    -0.73500
Cu51       Cu  0.15464312  0.55088987  0.05468070     1.04600
Cu52       Cu  0.17653178  0.53755716  0.09260823     1.04300
C53         C  0.20745231  0.53306270  0.04651346     0.92800
C54         C  0.12512343  0.55619392  0.10220948     0.91900
C55         C  0.18284640  0.59164367  0.07863332     0.84100
C56         C  0.14539057  0.49791921  0.06838244     0.90400
O57         O  0.94319121  0.55856087  0.17643130    -0.73400
O58         O  0.01637874  0.55441409  0.15524713    -0.74400
O59         O  0.98834848  0.53887414  0.19984780    -0.63000
O60         O  0.97139817  0.57555802  0.13291870    -0.71400
O61         O  0.97829114  0.61300648  0.15245369    -0.71000
O62         O  0.99653411  0.57693700  0.21771835    -0.62200
O63         O  0.02459243  0.59289509  0.17236706    -0.74700
O64         O  0.95038391  0.59595083  0.19595248    -0.73500
Cu65       Cu  0.97964690  0.55548370  0.16552258     1.04600
Cu66       Cu  0.98781018  0.59595914  0.18537064     1.04300
C67         C  0.93493163  0.57789535  0.18915141     0.92800
C68         C  0.03178271  0.57309989  0.15940661     0.91900
C69         C  0.99441881  0.55246256  0.21959195     0.84100
C70         C  0.97216468  0.60030591  0.13231794     0.90400
O71         O  0.94051718  0.67611165  0.03487926    -0.73400
O72         O  0.93243708  0.70114299  0.96151457    -0.74400
O73         O  0.91644816  0.65751110  0.99016582    -0.63000
O74         O  0.95562789  0.72172016  0.00643380    -0.71400
O75         O  0.99241520  0.70310364  0.99500270    -0.71000
O76         O  0.95307155  0.63748844  0.98021645    -0.62200
O77         O  0.96879762  0.68110045  0.95115995    -0.74700
O78         O  0.97749482  0.65773204  0.02326805    -0.73500
Cu79       Cu  0.93507641  0.68999937  0.99869818     1.04600
Cu80       Cu  0.97429502  0.66936121  0.98708664     1.04300
C81         C  0.95971168  0.66135779  0.03990302     0.92800
C82         C  0.94914959  0.69429368  0.94457293     0.91900
C83         C  0.92855688  0.63717638  0.98340526     0.84100
C84         C  0.97991772  0.72311669  0.00248501     0.90400
O85         O  0.87769660  0.51533980  0.53703038    -0.73400
O86         O  0.85203115  0.58617325  0.54781422    -0.74400
O87         O  0.89493151  0.55836563  0.56601565    -0.63000
O88         O  0.83303451  0.54347882  0.52011777    -0.71400
O89         O  0.81170607  0.53060357  0.55484642    -0.71000
O90         O  0.87228705  0.54434997  0.59960501    -0.62200
O91         O  0.82991358  0.57400983  0.58245119    -0.74700
O92         O  0.85573180  0.50109735  0.57097398    -0.73500
Cu93       Cu  0.86512867  0.55115045  0.54146215     1.04600
Cu94       Cu  0.84155541  0.53692673  0.57805269     1.04300
C95         C  0.87196203  0.49721936  0.55267635     0.92800
C96         C  0.83770006  0.59172497  0.56699000     0.91900
C97         C  0.89298047  0.55392590  0.59032057     0.84100
C98         C  0.81205786  0.53564955  0.53072711     0.90400
O99         O  0.98730649  0.33260230  0.52858187    -0.73400
O100        O  0.94981580  0.39900231  0.54356173    -0.74400
O101        O  0.96635119  0.35611762  0.57302658    -0.63000
O102        O  0.97155350  0.37672953  0.49948046    -0.71400
O103        O  0.93347984  0.35891220  0.49100072    -0.71000
O104        O  0.92930696  0.33609306  0.56565930    -0.62200
O105        O  0.91243673  0.37930445  0.53668197    -0.74700
O106        O  0.94985796  0.31385166  0.51994352    -0.73500
Cu107      Cu  0.97009433  0.36662993  0.53635768     1.04600
Cu108      Cu  0.93002597  0.34618606  0.52793443     1.04300
C109        C  0.97430752  0.31243943  0.52268223     0.92800
C110        C  0.92514774  0.39960752  0.54233517     0.91900
C111        C  0.94702998  0.34327735  0.58128948     0.84100
C112        C  0.95279106  0.37277124  0.48414454     0.90400
O113        O  0.01144029  0.48952175  0.38247005    -0.73400
O114        O  0.94105367  0.48213843  0.35478473    -0.74400
O115        O  0.96696642  0.46194042  0.39810441    -0.63000
O116        O  0.98580999  0.50817993  0.33737269    -0.71400
O117        O  0.99801866  0.47327761  0.31595020    -0.71000
O118        O  0.98018642  0.42825185  0.37519834    -0.62200
O119        O  0.95246918  0.44747195  0.33241381    -0.74700
O120        O  0.02522371  0.45544061  0.36057333    -0.73500
Cu121      Cu  0.97597687  0.48670524  0.36888127     1.04600
Cu122      Cu  0.98948013  0.44998932  0.34516511     1.04300
C123        C  0.02935886  0.47363235  0.37683162     0.92800
C124        C  0.93513432  0.46350280  0.33993889     0.91900
C125        C  0.97086100  0.43755630  0.39596242     0.84100
C126        C  0.99447383  0.49760949  0.31668346     0.90400
O127        O  0.12630843  0.48936110  0.45647732    -0.73400
O128        O  0.19387484  0.50393929  0.49241037    -0.74400
O129        O  0.14939386  0.53331025  0.47878827    -0.63000
O130        O  0.16967377  0.45976770  0.47134737    -0.71400
O131        O  0.18850741  0.46788496  0.43384925    -0.71000
O132        O  0.16593685  0.54279008  0.44032409    -0.62200
O133        O  0.21159284  0.51322335  0.45450564    -0.74700
O134        O  0.14497396  0.49715768  0.41866776    -0.73500
Cu135      Cu  0.15929053  0.49637593  0.47606818     1.04600
Cu136      Cu  0.17853026  0.50569885  0.43555293     1.04300
C137        C  0.12509484  0.49086606  0.43180923     0.92800
C138        C  0.21365081  0.51021781  0.47890996     0.91900
C139        C  0.15328338  0.54941974  0.46057945     0.84100
C140        C  0.18190348  0.45181784  0.45149490     0.90400
O141        O  0.06030379  0.59130562  0.69554347    -0.73400
O142        O  0.98650320  0.58911428  0.67060723    -0.74400
O143        O  0.01341608  0.57291977  0.71673069    -0.63000
O144        O  0.03341667  0.60843080  0.65148198    -0.71400
O145        O  0.03966491  0.57065479  0.63233598    -0.71000
O146        O  0.02251016  0.53506991  0.69915899    -0.62200
O147        O  0.99456082  0.55018998  0.65438118    -0.74700
O148        O  0.06764808  0.55400607  0.67579730    -0.73500
Cu149      Cu  0.02303094  0.59173339  0.68437643     1.04600
Cu150      Cu  0.03123775  0.55112568  0.66488917     1.04300
C151        C  0.07575302  0.57315448  0.68886696     0.92800
C152        C  0.97944162  0.56930787  0.65762642     0.91900
C153        C  0.01604521  0.54852579  0.71888871     0.84100
C154        C  0.03930764  0.59536150  0.63147146     0.90400
O155        O  0.03491715  0.64852616  0.52000687    -0.73400
O156        O  0.04190131  0.67672507  0.44987696    -0.74400
O157        O  0.06335582  0.63410682  0.47564503    -0.63000
O158        O  0.01446193  0.69314815  0.49394333    -0.71400
O159        O  0.04836372  0.71589898  0.50630260    -0.71000
O160        O  0.09623834  0.65754612  0.48982595    -0.62200
O161        O  0.07591691  0.69980712  0.46168498    -0.74700
O162        O  0.06788356  0.67189755  0.53411908    -0.73500
Cu163      Cu  0.03741529  0.66238064  0.48459715     1.04600
Cu164      Cu  0.07315373  0.68722784  0.49855084     1.04300
C165        C  0.05065866  0.65456127  0.53786506     0.92800
C166        C  0.06029391  0.69198636  0.44422194     0.91900
C167        C  0.08761597  0.63682182  0.47972777     0.84100
C168        C  0.02413281  0.71445902  0.50204328     0.90400
O169        O  0.53134558  0.61347297  0.87584871    -0.73400
O170        O  0.51138945  0.57133660  0.81409852    -0.74400
O171        O  0.48499877  0.58927357  0.85992655    -0.63000
O172        O  0.55759264  0.59504947  0.83173241    -0.71400
O173        O  0.56800414  0.55913318  0.85237756    -0.71000
O174        O  0.49693205  0.55341929  0.88032543    -0.62200
O175        O  0.52238575  0.53537809  0.83445560    -0.74700
O176        O  0.54254185  0.57769885  0.89658669    -0.73500
Cu177      Cu  0.52080342  0.59344455  0.84453418     1.04600
Cu178      Cu  0.53268812  0.55509977  0.86652327     1.04300
C179        C  0.54029409  0.60233417  0.89592360     0.92800
C180        C  0.51458505  0.54684548  0.81398076     0.91900
C181        C  0.48025689  0.57097835  0.87589899     0.84100
C182        C  0.57453677  0.57833988  0.83839208     0.90400
O183        O  0.32402985  0.57413678  0.94387385    -0.73400
O184        O  0.35195798  0.50161650  0.95131875    -0.74400
O185        O  0.30630843  0.52865184  0.96864585    -0.63000
O186        O  0.36766505  0.54705672  0.92581867    -0.71400
O187        O  0.38873567  0.55899730  0.96098966    -0.71000
O188        O  0.32642704  0.54073922  0.00429927    -0.62200
O189        O  0.37205237  0.51441498  0.98684670    -0.74700
O190        O  0.34491929  0.58533316  0.97930198    -0.73500
Cu191      Cu  0.33660649  0.53731185  0.94629937     1.04600
Cu192      Cu  0.35863516  0.55012081  0.98416871     1.04300
C193        C  0.33090542  0.59145729  0.96013707     0.92800
C194        C  0.36788208  0.49726719  0.96970588     0.91900
C195        C  0.30599183  0.53275751  0.99295361     0.84100
C196        C  0.38792147  0.55604326  0.93642896     0.90400
O197        O  0.45511121  0.32031402  0.00321213    -0.73400
O198        O  0.41790881  0.38487191  0.98388000    -0.74400
O199        O  0.43604619  0.34129108  0.95644575    -0.63000
O200        O  0.43781085  0.36562888  0.03064204    -0.71400
O201        O  0.47580805  0.38361161  0.02209565    -0.71000
O202        O  0.47296582  0.36199522  0.94934843    -0.62200
O203        O  0.45511678  0.40504657  0.97733237    -0.74700
O204        O  0.49259153  0.33892027  0.99449796    -0.73500
Cu205      Cu  0.43547815  0.35215755  0.99391083     1.04600
Cu206      Cu  0.47549868  0.37288083  0.98567219     1.04300
C207        C  0.47959622  0.31885945  0.00090840     0.92800
C208        C  0.43042049  0.40529662  0.97810547     0.91900
C209        C  0.45392294  0.34892285  0.94113323     0.84100
C210        C  0.45676637  0.38001151  0.03726185     0.90400
O211        O  0.46545844  0.46611981  0.12916391    -0.73400
O212        O  0.48490488  0.50538475  0.19346830    -0.74400
O213        O  0.51050653  0.49024103  0.14683290    -0.63000
O214        O  0.43961260  0.48206466  0.17406073    -0.71400
O215        O  0.45048346  0.44535860  0.19313544    -0.71000
O216        O  0.52298481  0.45355981  0.16521880    -0.62200
O217        O  0.49656342  0.46846598  0.21169582    -0.74700
O218        O  0.47695476  0.42956195  0.14837008    -0.73500
Cu219      Cu  0.47484671  0.48729390  0.16035256     1.04600
Cu220      Cu  0.48726049  0.44803016  0.18039827     1.04300
C221        C  0.46819069  0.44154128  0.12873163     0.92800
C222        C  0.49300578  0.49280589  0.21318114     0.91900
C223        C  0.52761755  0.47293183  0.15050441     0.84100
C224        C  0.43335309  0.46214192  0.18710599     0.90400
O225        O  0.58269934  0.70366177  0.06641567    -0.73400
O226        O  0.57531947  0.67761356  0.99286901    -0.74400
O227        O  0.55929259  0.72307553  0.02095207    -0.63000
O228        O  0.60006887  0.66043014  0.03820765    -0.71400
O229        O  0.56495116  0.63921268  0.05017336    -0.71000
O230        O  0.52303327  0.70339255  0.03222645    -0.62200
O231        O  0.53958567  0.65763047  0.00561800    -0.74700
O232        O  0.54664970  0.68311482  0.07660948    -0.73500
Cu233      Cu  0.58050461  0.69203479  0.02909122     1.04600
Cu234      Cu  0.54221982  0.67023531  0.04136380     1.04300
C235        C  0.56591211  0.69665320  0.08327723     0.92800
C236        C  0.55667279  0.66197392  0.98846775     0.91900
C237        C  0.53503335  0.72384999  0.02496319     0.84100
C238        C  0.58951553  0.64001829  0.04697227     0.90400
O239        O  0.64616128  0.53227626  0.04748881    -0.73400
O240        O  0.66797114  0.45910852  0.05408996    -0.74400
O241        O  0.62381460  0.48738375  0.06867167    -0.63000
O242        O  0.69176073  0.50377978  0.03394469    -0.71400
O243        O  0.70850311  0.51267233  0.07229396    -0.71000
O244        O  0.64165549  0.49504699  0.10677619    -0.62200
O245        O  0.68587180  0.46703084  0.09209698    -0.74700
O246        O  0.66205372  0.54125745  0.08627967    -0.73500
Cu247      Cu  0.65694061  0.49548793  0.04967570     1.04600
Cu248      Cu  0.67526979  0.50448772  0.09062196     1.04300
C249        C  0.64921471  0.54789728  0.06622253     0.92800
C250        C  0.67984444  0.45118816  0.07412628     0.91900
C251        C  0.62218270  0.48836921  0.09332967     0.84100
C252        C  0.71121751  0.50973853  0.04794044     0.90400
O253        O  0.41977014  0.65643819  0.53810653    -0.73400
O254        O  0.45821666  0.72184275  0.52277870    -0.74400
O255        O  0.44401013  0.67652728  0.49341532    -0.63000
O256        O  0.43462901  0.69954405  0.56746119    -0.71400
O257        O  0.47150803  0.68052211  0.57761038    -0.71000
O258        O  0.48048567  0.65746540  0.50532104    -0.62200
O259        O  0.49498817  0.70289337  0.53342493    -0.74700
O260        O  0.45619758  0.63704609  0.54931904    -0.73500
Cu261      Cu  0.43797657  0.68945355  0.52994475     1.04600
Cu262      Cu  0.47715445  0.66901273  0.54164137     1.04300
C263        C  0.43168310  0.63647669  0.54631166     0.92800
C264        C  0.48258834  0.72308538  0.52624248     0.91900
C265        C  0.46322593  0.66179372  0.48835791     0.84100
C266        C  0.45117211  0.69250656  0.58445422     0.90400
O267        O  0.45259217  0.59634318  0.33151793    -0.73400
O268        O  0.52645696  0.58772144  0.35651547    -0.74400
O269        O  0.49800179  0.57262987  0.31124487    -0.63000
O270        O  0.48146276  0.61270165  0.37496573    -0.71400
O271        O  0.47023365  0.57657477  0.39509452    -0.71000
O272        O  0.48705888  0.53608840  0.33052222    -0.62200
O273        O  0.51398521  0.55150777  0.37583028    -0.74700
O274        O  0.44256260  0.55985022  0.35133903    -0.73500
Cu275      Cu  0.49008105  0.59357263  0.34269384     1.04600
Cu276      Cu  0.47814456  0.55472665  0.36372879     1.04300
C277        C  0.43572991  0.57945333  0.33825191     0.92800
C278        C  0.53120536  0.56847699  0.37139245     0.91900
C279        C  0.49475602  0.54822887  0.31033243     0.84100
C280        C  0.47366254  0.60109050  0.39525688     0.90400
O281        O  0.71145222  0.53152157  0.45390265    -0.73400
O282        O  0.64583418  0.54669238  0.41616883    -0.74400
O283        O  0.68843793  0.57623685  0.43263019    -0.63000
O284        O  0.66713642  0.50150282  0.43834984    -0.71400
O285        O  0.64954160  0.51055233  0.47647305    -0.71000
O286        O  0.66806681  0.58442224  0.46933271    -0.62200
O287        O  0.62595711  0.55398667  0.45343356    -0.74700
O288        O  0.69270844  0.54104704  0.49121982    -0.73500
Cu289      Cu  0.67899485  0.53857862  0.43399751     1.04600
Cu290      Cu  0.65845766  0.54769711  0.47392907     1.04300
C291        C  0.71285954  0.53475578  0.47831484     0.92800
C292        C  0.62550058  0.55268782  0.42873642     0.91900
C293        C  0.68107525  0.59227172  0.44998076     0.84100
C294        C  0.65435478  0.49459340  0.45838403     0.90400
O295        O  0.52732788  0.34092177  0.49226211    -0.73400
O296        O  0.56991462  0.40404773  0.47378268    -0.74400
O297        O  0.55305349  0.35938815  0.44823811    -0.63000
O298        O  0.54299232  0.38748069  0.51825820    -0.71400
O299        O  0.57772799  0.36710877  0.53275581    -0.71000
O300        O  0.58932450  0.33999447  0.45974207    -0.62200
O301        O  0.60482461  0.38395732  0.48823882    -0.74700
O302        O  0.56333192  0.32092838  0.50399312    -0.73500
Cu303      Cu  0.54704291  0.37356143  0.48288245     1.04600
Cu304      Cu  0.58496661  0.35217662  0.49683391     1.04300
C305        C  0.53913433  0.32039151  0.49949254     0.92800
C306        C  0.59427959  0.40367402  0.47790832     0.91900
C307        C  0.57279167  0.34597518  0.44234195     0.84100
C308        C  0.55912149  0.38311995  0.53627091     0.90400
O309        O  0.49690754  0.48830646  0.65099436    -0.73400
O310        O  0.56992789  0.48428296  0.67324596    -0.74400
O311        O  0.54226991  0.46608208  0.63022403    -0.63000
O312        O  0.52437009  0.50545877  0.69551309    -0.71400
O313        O  0.51540146  0.46836723  0.71490546    -0.71000
O314        O  0.53530863  0.42927248  0.65101453    -0.62200
O315        O  0.56227156  0.44784006  0.69463616    -0.74700
O316        O  0.48837629  0.45054763  0.66962710    -0.73500
Cu317      Cu  0.53356171  0.48737755  0.66193806     1.04600
Cu318      Cu  0.52493884  0.44778246  0.68339170     1.04300
C319        C  0.48149091  0.46969026  0.65553255     0.92800
C320        C  0.57791123  0.46526447  0.68665214     0.91900
C321        C  0.54195573  0.44130942  0.63052798     0.84100
C322        C  0.51734069  0.49296476  0.71572591     0.90400
O323        O  0.35413004  0.53978691  0.57844558    -0.73400
O324        O  0.32638087  0.46679318  0.58485458    -0.74400
O325        O  0.36913020  0.49448403  0.60466162    -0.63000
O326        O  0.30960604  0.51255021  0.55946903    -0.71400
O327        O  0.33136238  0.50153431  0.52438750    -0.71000
O328        O  0.39169593  0.48186864  0.57050438    -0.62200
O329        O  0.34832113  0.45628796  0.54973623    -0.74700
O330        O  0.37652148  0.52678732  0.54423734    -0.73500
Cu331      Cu  0.33887293  0.50389102  0.58296404     1.04600
Cu332      Cu  0.36263200  0.49131656  0.54595087     1.04300
C333        C  0.37100942  0.54407535  0.56083895     0.92800
C334        C  0.33380154  0.44978160  0.56844232     0.91900
C335        C  0.38991480  0.48556433  0.59493279     0.84100
C336        C  0.31045311  0.50952619  0.53503393     0.90400
O337        O  0.54866401  0.86054700  0.58126401    -0.73400
O338        O  0.54326220  0.88901602  0.51097224    -0.74400
O339        O  0.52418639  0.84286175  0.53578858    -0.63000
O340        O  0.56888764  0.90436730  0.55660620    -0.71400
O341        O  0.60336812  0.88215736  0.54436748    -0.71000
O342        O  0.55978906  0.82229014  0.52409414    -0.62200
O343        O  0.57826279  0.86794558  0.49806786    -0.74700
O344        O  0.58390481  0.83853153  0.57050954    -0.73500
Cu345      Cu  0.54491303  0.87483407  0.54638240     1.04600
Cu346      Cu  0.58243128  0.85185037  0.53371787     1.04300
C347        C  0.56756028  0.84617319  0.58746364     0.92800
C348        C  0.56023798  0.88434829  0.49376085     0.91900
C349        C  0.53540114  0.82232236  0.52755632     0.84100
C350        C  0.59344387  0.90261643  0.55379339     0.90400
O351        O  0.56095907  0.94483942  0.33611497    -0.73400
O352        O  0.48892459  0.95743734  0.36458080    -0.74400
O353        O  0.51554803  0.96922690  0.31690513    -0.63000
O354        O  0.53441497  0.93196737  0.38205228    -0.71400
O355        O  0.54713788  0.96877844  0.39983569    -0.71000
O356        O  0.52837885  0.00620323  0.33409315    -0.62200
O357        O  0.50292029  0.99422293  0.38139628    -0.74700
O358        O  0.57260472  0.98193694  0.35380245    -0.73500
Cu359      Cu  0.52434501  0.94959640  0.34919572     1.04600
Cu360      Cu  0.53809523  0.98906369  0.36774839     1.04300
C361        C  0.57839982  0.96153334  0.34136794     0.92800
C362        C  0.48505303  0.97762854  0.37841487     0.91900
C363        C  0.51978627  0.99343464  0.31475682     0.84100
C364        C  0.54386428  0.94429243  0.40114895     0.90400
O365        O  0.49182551  0.20326283  0.49175935    -0.73400
O366        O  0.44628686  0.14143276  0.47698526    -0.74400
O367        O  0.46336623  0.18485145  0.44955246    -0.63000
O368        O  0.47564649  0.15807700  0.51926262    -0.71400
O369        O  0.44176809  0.17933182  0.53456490    -0.71000
O370        O  0.42871664  0.20619086  0.46254787    -0.62200
O371        O  0.41245988  0.16302295  0.49209002    -0.74700
O372        O  0.45729177  0.22428841  0.50552863    -0.73500
Cu373      Cu  0.47052484  0.17127261  0.48402112     1.04600
Cu374      Cu  0.43396116  0.19411871  0.49929491     1.04300
C375        C  0.48136273  0.22405093  0.50025104     0.92800
C376        C  0.42214141  0.14262896  0.48224731     0.91900
C377        C  0.44400706  0.19907054  0.44445553     0.84100
C378        C  0.46008119  0.16301843  0.53766951     0.90400
O379        O  0.36777658  0.03390728  0.48668276    -0.73400
O380        O  0.34958158  0.95994200  0.47766767    -0.74400
O381        O  0.39142430  0.99141859  0.46217479    -0.63000
O382        O  0.32514809  0.00287172  0.50113382    -0.71400
O383        O  0.30594019  0.01337576  0.46447819    -0.71000
O384        O  0.37095126  0.99920694  0.42538171    -0.62200
O385        O  0.32846276  0.96892976  0.44155719    -0.74700
O386        O  0.34972094  0.04355922  0.44900218    -0.73500
Cu387      Cu  0.35907634  0.99673782  0.48322308     1.04600
Cu388      Cu  0.33795145  0.00666687  0.44386851     1.04300
C389        C  0.36265420  0.05018854  0.46895582     0.92800
C390        C  0.33635720  0.95252959  0.45830733     0.91900
C391        C  0.39155521  0.99345560  0.43753793     0.84100
C392        C  0.30488984  0.00986537  0.48885264     0.90400
O393        O  0.49714215  0.07252109  0.71266346    -0.73400
O394        O  0.48020233  0.11252604  0.64945956    -0.74400
O395        O  0.45186359  0.09621173  0.69288602    -0.63000
O396        O  0.52515413  0.08787074  0.66754918    -0.71400
O397        O  0.51314176  0.05125896  0.64888234    -0.71000
O398        O  0.44151741  0.06021272  0.67235892    -0.62200
O399        O  0.46990694  0.07633495  0.62891088    -0.74700
O400        O  0.48540124  0.03614629  0.69348867    -0.73500
Cu401      Cu  0.48904267  0.09350263  0.68148709     1.04600
Cu402      Cu  0.47716271  0.05468292  0.66035354     1.04300
C403        C  0.49352627  0.04815991  0.71346647     0.92800
C404        C  0.47282319  0.10088483  0.62911699     0.91900
C405        C  0.43490290  0.07973299  0.68577084     0.84100
C406        C  0.53020526  0.06840754  0.65316121     0.90400
O407        O  0.66648812  0.00250288  0.59037121    -0.73400
O408        O  0.68782450  0.07775879  0.58947298    -0.74400
O409        O  0.64566330  0.04906771  0.60930680    -0.63000
O410        O  0.71018457  0.03120596  0.57080692    -0.71400
O411        O  0.69030396  0.03807779  0.53360913    -0.71000
O412        O  0.62506536  0.05361019  0.57203990    -0.62200
O413        O  0.66639930  0.08324520  0.55285012    -0.74700
O414        O  0.64777780  0.00863769  0.55227497    -0.73500
Cu415      Cu  0.67841646  0.03987618  0.59125382     1.04600
Cu416      Cu  0.65679768  0.04601766  0.55137883     1.04300
C417        C  0.65288021  0.99416433  0.57154012     0.92800
C418        C  0.67960459  0.09251139  0.57138528     0.91900
C419        C  0.62500988  0.05359765  0.59672812     0.84100
C420        C  0.71078878  0.03250790  0.54616211     0.90400
O421        O  0.43819376  0.86521737  0.99199345    -0.73400
O422        O  0.42833606  0.84190481  0.06623083    -0.74400
O423        O  0.41199955  0.88436780  0.03562869    -0.63000
O424        O  0.45365916  0.82103854  0.02198396    -0.71400
O425        O  0.48967469  0.84142289  0.03225964    -0.71000
O426        O  0.44711023  0.90513201  0.04869090    -0.62200
O427        O  0.46478288  0.86182800  0.07615077    -0.74700
O428        O  0.47318693  0.88631940  0.00487594    -0.73500
Cu429      Cu  0.43187660  0.85222377  0.02847344     1.04600
Cu430      Cu  0.46998132  0.87426372  0.04075874     1.04300
C431        C  0.45664321  0.88107576  0.98753588     0.92800
C432        C  0.44507478  0.84887980  0.08304344     0.91900
C433        C  0.42273576  0.90460496  0.04458094     0.84100
C434        C  0.47804923  0.82073582  0.02521561     0.90400
O435        O  0.36579573  0.04612458  0.10623550    -0.73400
O436        O  0.30370781  0.03074488  0.06393485    -0.74400
O437        O  0.34794000  0.00167972  0.08069162    -0.63000
O438        O  0.32357016  0.07560876  0.08857250    -0.71400
O439        O  0.34491965  0.08596849  0.05295134    -0.71000
O440        O  0.36867616  0.01369131  0.04503717    -0.62200
O441        O  0.32453971  0.04182912  0.02822437    -0.74700
O442        O  0.38766129  0.05785627  0.07123343    -0.73500
Cu443      Cu  0.33440135  0.03808441  0.08603430     1.04600
Cu444      Cu  0.35713513  0.05011666  0.04808085     1.04300
C445        C  0.38638071  0.05457940  0.09573200     0.92800
C446        C  0.30385041  0.03426656  0.03953557     0.91900
C447        C  0.36280983  0.99644774  0.06160813     0.84100
C448        C  0.33102556  0.09260561  0.07214667     0.90400
O449        O  0.51194170  0.98873275  0.87609716    -0.73400
O450        O  0.44018791  0.98373988  0.85255123    -0.74400
O451        O  0.46761638  0.96450189  0.89482334    -0.63000
O452        O  0.48503147  0.00675580  0.83180058    -0.71400
O453        O  0.49522836  0.97047468  0.81155738    -0.71000
O454        O  0.47723081  0.92870902  0.87336602    -0.62200
O455        O  0.44914861  0.94780241  0.83090380    -0.74700
O456        O  0.52294530  0.95247478  0.85596927    -0.73500
Cu457      Cu  0.47597031  0.98725331  0.86438699     1.04600
Cu458      Cu  0.48657261  0.94868880  0.84199351     1.04300
C459        C  0.52829951  0.97098252  0.87145337     0.92800
C460        C  0.43290129  0.96464962  0.83900263     0.91900
C461        C  0.46964236  0.93983897  0.89394654     0.84100
C462        C  0.49249263  0.99496433  0.81137508     0.90400
O463        O  0.52265944  0.03687348  0.19670290    -0.73400
O464        O  0.53520903  0.07694621  0.13092876    -0.74400
O465        O  0.56563663  0.06090135  0.17283284    -0.63000
O466        O  0.49218352  0.05228123  0.15352503    -0.71400
O467        O  0.48209432  0.08976369  0.17189504    -0.71000
O468        O  0.55616396  0.09683510  0.19423880    -0.62200
O469        O  0.52648738  0.11349481  0.15144935    -0.74700
O470        O  0.51163269  0.07332127  0.21599036    -0.73500
Cu471      Cu  0.52914942  0.05543211  0.16289603     1.04600
Cu472      Cu  0.51865382  0.09455933  0.18424804     1.04300
C473        C  0.51566468  0.04900504  0.21710318     0.92800
C474        C  0.53322214  0.10160664  0.13091685     0.91900
C475        C  0.57266631  0.08026034  0.18624805     0.84100
C476        C  0.47588130  0.07006900  0.15839412     0.90400
O477        O  0.53660201  0.17467948  0.94630848    -0.73400
O478        O  0.52923897  0.15335806  0.01977972    -0.74400
O479        O  0.51422190  0.19793056  0.99090619    -0.63000
O480        O  0.55291229  0.13164139  0.97568405    -0.71400
O481        O  0.58966660  0.15213687  0.98354498    -0.71000
O482        O  0.55151816  0.21602634  0.00131572    -0.62200
O483        O  0.56710088  0.17110647  0.02929678    -0.74700
O484        O  0.57289972  0.19553357  0.95538908    -0.73500
Cu485      Cu  0.53184986  0.16380742  0.98289278     1.04600
Cu486      Cu  0.57149142  0.18447629  0.99277838     1.04300
C487        C  0.55597858  0.18801079  0.93905173     0.92800
C488        C  0.54732640  0.15777206  0.03579467     0.91900
C489        C  0.52715650  0.21766272  0.99835348     0.84100
C490        C  0.57759749  0.13170509  0.97717004     0.90400
O491        O  0.65638308  0.03680952  0.94561705    -0.73400
O492        O  0.68449287  0.96406340  0.93667831    -0.74400
O493        O  0.63987219  0.99123449  0.92100590    -0.63000
O494        O  0.70298440  0.01013878  0.96036765    -0.71400
O495        O  0.68447145  0.99780945  0.99694391    -0.71000
O496        O  0.62010614  0.98000663  0.95736360    -0.62200
O497        O  0.66444534  0.95325089  0.97304473    -0.74700
O498        O  0.63847098  0.02406062  0.98240780    -0.73500
Cu499      Cu  0.67180182  0.00109669  0.93970825     1.04600
Cu500      Cu  0.65139379  0.98847394  0.97875662     1.04300
C501        C  0.64160390  0.04118560  0.96501584     0.92800
C502        C  0.67757878  0.94697035  0.95323662     0.91900
C503        C  0.61989994  0.98297609  0.93281065     0.84100
C504        C  0.70419459  0.00635417  0.98469469     0.90400
O505        O  0.97508789  0.15843820  0.00544170    -0.73400
O506        O  0.96539023  0.18187046  0.07715553    -0.74400
O507        O  0.94805086  0.13917565  0.04832661    -0.63000
O508        O  0.99118251  0.20249151  0.03402794    -0.71400
O509        O  0.95584808  0.22338216  0.02221419    -0.71000
O510        O  0.91329416  0.16065198  0.03528478    -0.62200
O511        O  0.92985328  0.20298619  0.06621972    -0.74700
O512        O  0.94028733  0.17946016  0.99192302    -0.73500
Cu513      Cu  0.97117475  0.16987499  0.04154017     1.04600
Cu514      Cu  0.93362112  0.19252848  0.02844685     1.04300
C515        C  0.95895215  0.16375302  0.98770247     0.92800
C516        C  0.94612845  0.19575166  0.08344005     0.91900
C517        C  0.92380265  0.14006230  0.04374152     0.84100
C518        C  0.98009466  0.22328021  0.02649421     0.90400
O519        O  0.88818426  0.98881794  0.06496422    -0.73400
O520        O  0.82316777  0.00160019  0.02428683    -0.74400
O521        O  0.86722091  0.03115812  0.03818366    -0.63000
O522        O  0.84477430  0.95890218  0.05013041    -0.71400
O523        O  0.82361231  0.97016113  0.08556870    -0.71000
O524        O  0.84911801  0.04301710  0.07526443    -0.62200
O525        O  0.80404295  0.01447733  0.06036614    -0.74700
O526        O  0.86744212  0.99893857  0.10111870    -0.73500
Cu527      Cu  0.85646020  0.99471320  0.04310757     1.04600
Cu528      Cu  0.83524032  0.00713846  0.08176922     1.04300
C529        C  0.88805544  0.99216894  0.08945988     0.92800
C530        C  0.80309602  0.00977170  0.03617971     0.91900
C531        C  0.86283734  0.04823846  0.05534231     0.84100
C532        C  0.83071151  0.95283610  0.06945884     0.90400
O533        O  0.06980682  0.98349696  0.17092043    -0.73400
O534        O  0.99894667  0.99773133  0.14642881    -0.74400
O535        O  0.02718007  0.01043594  0.19200672    -0.63000
O536        O  0.04110826  0.97015548  0.12682570    -0.71400
O537        O  0.02879876  0.93417815  0.14678946    -0.71000
O538        O  0.01292881  0.97457894  0.21047294    -0.62200
O539        O  0.98487530  0.96147718  0.16444328    -0.74700
O540        O  0.05697861  0.94794072  0.19120181    -0.73500
Cu541      Cu  0.03467981  0.99176465  0.15853754     1.04600
Cu542      Cu  0.02030871  0.95337875  0.17905484     1.04300
C543        C  0.07497273  0.96332960  0.18405654     0.92800
C544        C  0.98098215  0.98131616  0.15013217     0.91900
C545        C  0.01814841  0.99865002  0.21181429     0.84100
C546        C  0.03720223  0.94573993  0.12671593     0.90400
O547        O  0.07837399  0.84255698  0.95684927    -0.73400
O548        O  0.06787610  0.87255523  0.02852705    -0.74400
O549        O  0.05385209  0.82508248  0.00294179    -0.63000
O550        O  0.09344109  0.88810082  0.98242121    -0.71400
O551        O  0.05720322  0.90713031  0.96994916    -0.71000
O552        O  0.01729136  0.84307832  0.99011190    -0.62200
O553        O  0.03143761  0.89028170  0.01485464    -0.74700
O554        O  0.04179754  0.86160106  0.94521545    -0.73500
Cu555      Cu  0.07458088  0.85627304  0.99331257     1.04600
Cu556      Cu  0.03562526  0.87602724  0.97973080     1.04300
C557        C  0.06193931  0.84876241  0.93946707     0.92800
C558        C  0.04834256  0.88730566  0.03240139     0.91900
C559        C  0.02958743  0.82352019  0.99897739     0.84100
C560        C  0.08175043  0.90753852  0.97281586     0.90400
O561        O  0.20808324  0.02837046  0.95839322    -0.73400
O562        O  0.14829716  0.04704482  0.91377548    -0.74400
O563        O  0.19147798  0.07436743  0.93308681    -0.63000
O564        O  0.16274427  0.00133612  0.93978196    -0.71400
O565        O  0.14135590  0.01471606  0.97444829    -0.71000
O566        O  0.16952896  0.08469939  0.96834320    -0.62200
O567        O  0.12605245  0.05956336  0.94833769    -0.74700
O568        O  0.18656979  0.03997700  0.99350514    -0.73500
Cu569      Cu  0.17861889  0.03722493  0.93511389     1.04600
Cu570      Cu  0.15526522  0.04999952  0.97240191     1.04300
C571        C  0.20741520  0.03207513  0.98276691     0.92800
C572        C  0.12778157  0.05608866  0.92392413     0.91900
C573        C  0.18407749  0.09124773  0.94964245     0.84100
C574        C  0.14598261  0.99738859  0.95762967     0.90400
O575        O  0.95409323  0.10092786  0.83052234    -0.73400
O576        O  0.02922127  0.09441745  0.85211175    -0.74400
O577        O  0.99899955  0.07744116  0.80873348    -0.63000
O578        O  0.98425233  0.11900530  0.87214665    -0.71400
O579        O  0.97513731  0.08299944  0.89340184    -0.71000
O580        O  0.98941453  0.04119386  0.82938148    -0.62200
O581        O  0.01859815  0.05802638  0.87209508    -0.74700
O582        O  0.94583186  0.06477122  0.85188191    -0.73500
Cu583      Cu  0.99207703  0.09919794  0.83999908     1.04600
Cu584      Cu  0.98202827  0.06053003  0.86234712     1.04300
C585        C  0.93797947  0.08399166  0.83876938     0.92800
C586        C  0.03541596  0.07493338  0.86610096     0.91900
C587        C  0.99612023  0.05293328  0.80868119     0.84100
C588        C  0.97700656  0.10768664  0.89278519     0.90400
O589        O  0.99556532  0.05055316  0.37654932    -0.73400
O590        O  0.06852159  0.05443151  0.35497848    -0.74400
O591        O  0.04063184  0.07149585  0.39843241    -0.63000
O592        O  0.02341939  0.03471925  0.33194839    -0.71400
O593        O  0.01466540  0.07260232  0.31398478    -0.71000
O594        O  0.03363289  0.10905318  0.37909555    -0.62200
O595        O  0.06103986  0.09177683  0.33523008    -0.74700
O596        O  0.98715041  0.08904245  0.35949745    -0.73500
Cu597      Cu  0.03219745  0.05145247  0.36604906     1.04600
Cu598      Cu  0.02375980  0.09189368  0.34617004     1.04300
C599        C  0.98008811  0.06924639  0.37253976     0.92800
C600        C  0.07653845  0.07374827  0.34203078     0.91900
C601        C  0.03986766  0.09622386  0.39918440     0.84100
C602        C  0.01690729  0.04809831  0.31218865     0.90400
O603        O  0.89024188  0.06145338  0.45835008    -0.73400
O604        O  0.82882934  0.04223714  0.50266363    -0.74400
O605        O  0.87478955  0.01664620  0.48530588    -0.63000
O606        O  0.84582132  0.08694471  0.47651004    -0.71400
O607        O  0.82514389  0.07426013  0.44144236    -0.71000
O608        O  0.85351579  0.00241908  0.45102529    -0.62200
O609        O  0.80833077  0.02933644  0.46750961    -0.74700
O610        O  0.86896421  0.04700978  0.42409321    -0.73500
Cu611      Cu  0.86057974  0.05216982  0.48201401     1.04600
Cu612      Cu  0.83817117  0.03774801  0.44488246     1.04300
C613        C  0.88906496  0.05699990  0.43407628     0.92800
C614        C  0.80844927  0.03348521  0.49178298     0.91900
C615        C  0.86958794  0.99862085  0.46936747     0.84100
C616        C  0.83147025  0.09214130  0.45724560     0.90400
O617        O  0.97004899  0.87736450  0.52853596    -0.73400
O618        O  0.96464630  0.85866719  0.45443562    -0.74400
O619        O  0.94968130  0.90147701  0.48439404    -0.63000
O620        O  0.98419592  0.83287040  0.49881284    -0.71400
O621        O  0.94588696  0.81525718  0.50632423    -0.71000
O622        O  0.91164693  0.88306406  0.49123011    -0.62200
O623        O  0.92666488  0.84003163  0.46132898    -0.74700
O624        O  0.93146002  0.86041587  0.53657889    -0.73500
Cu625      Cu  0.96852995  0.86804309  0.49138584     1.04600
Cu626      Cu  0.92764174  0.84890904  0.49925237     1.04300
C627        C  0.95114913  0.87348113  0.54382785     0.92800
C628        C  0.94466636  0.84717913  0.44591872     0.91900
C629        C  0.92503744  0.90295694  0.48549321     0.84100
C630        C  0.97036261  0.81305623  0.50423251     0.90400
O631        O  0.08057116  0.19943221  0.56935954    -0.73400
O632        O  0.07310078  0.17086863  0.49714095    -0.74400
O633        O  0.05569625  0.21632824  0.52352398    -0.63000
O634        O  0.09871204  0.15552911  0.54276590    -0.71400
O635        O  0.06373257  0.13483222  0.55604356    -0.71000
O636        O  0.02004190  0.19584214  0.53504584    -0.62200
O637        O  0.03830873  0.14973442  0.51056298    -0.74700
O638        O  0.04471774  0.17925820  0.58090056    -0.73500
Cu639      Cu  0.07815934  0.18639891  0.53268484     1.04600
Cu640      Cu  0.04040867  0.16428878  0.54594874     1.04300
C641        C  0.06406254  0.19325201  0.58674792     0.92800
C642        C  0.05490437  0.15467612  0.49302738     0.91900
C643        C  0.03126323  0.21621872  0.52654889     0.84100
C644        C  0.08822720  0.13557419  0.55267937     0.90400
O645        O  0.14334360  0.99007834  0.60732532    -0.73400
O646        O  0.20669701  0.00951871  0.56878107    -0.74400
O647        O  0.16161735  0.03644727  0.58589477    -0.63000
O648        O  0.18708312  0.96293573  0.58946602    -0.71400
O649        O  0.16726273  0.95437460  0.55263273    -0.71000
O650        O  0.14250585  0.02666767  0.54876776    -0.62200
O651        O  0.18781581  0.00022198  0.53159272    -0.74700
O652        O  0.12332258  0.98105670  0.57066982    -0.73500
Cu653      Cu  0.17549697  0.00012806  0.58907947     1.04600
Cu654      Cu  0.15465041  0.99038454  0.54955355     1.04300
C655        C  0.12321459  0.98268447  0.59534898     0.92800
C656        C  0.20784591  0.00705356  0.54431510     0.91900
C657        C  0.14682826  0.04247247  0.56709172     0.84100
C658        C  0.18063544  0.94685456  0.57181907     0.90400
O659        O  0.02491437  0.95282595  0.66910853    -0.73400
O660        O  0.95373665  0.94454081  0.69871604    -0.74400
O661        O  0.98018048  0.92532547  0.65511806    -0.63000
O662        O  0.99874537  0.97151074  0.71381642    -0.71400
O663        O  0.98568418  0.00572188  0.69177158    -0.71000
O664        O  0.96576988  0.95875181  0.63260337    -0.62200
O665        O  0.94087650  0.97876700  0.67662025    -0.74700
O666        O  0.01055474  0.98623866  0.64627563    -0.73500
Cu667      Cu  0.98993409  0.94747272  0.68506139     1.04600
Cu668      Cu  0.97537459  0.98366502  0.66112576     1.04300
C669        C  0.02839452  0.97027183  0.65196696     0.92800
C670        C  0.93581118  0.96001562  0.69176748     0.91900
C671        C  0.97003473  0.93444756  0.63462748     0.84100
C672        C  0.99468252  0.99580626  0.71257466     0.90400
O673        O  0.69140887  0.60850606  0.80413665    -0.73400
O674        O  0.76412960  0.63097368  0.79847055    -0.74400
O675        O  0.73588697  0.58769563  0.78038731    -0.63000
O676        O  0.71969932  0.65074888  0.82360955    -0.71400
O677        O  0.72924554  0.62842513  0.85892129    -0.71000
O678        O  0.74603271  0.56665836  0.81620215    -0.62200
O679        O  0.77451275  0.61040701  0.83467854    -0.74700
O680        O  0.70035013  0.58616974  0.83952488    -0.73500
Cu681      Cu  0.72753072  0.62018482  0.80038728     1.04600
Cu682      Cu  0.73792199  0.59703879  0.83852024     1.04300
C683        C  0.68405954  0.59413060  0.82272458     0.92800
C684        C  0.78060501  0.62513246  0.81573665     0.91900
C685        C  0.74315278  0.56693443  0.79172704     0.84100
C686        C  0.72189944  0.64936438  0.84822715     0.90400
O687        O  0.93309198  0.75437072  0.78661691    -0.73400
O688        O  0.87078264  0.70923605  0.80310823    -0.74400
O689        O  0.91350531  0.72816684  0.83037664    -0.63000
O690        O  0.88827491  0.73651672  0.75940112    -0.71400
O691        O  0.90950795  0.70166176  0.74624470    -0.71000
O692        O  0.93559286  0.69301288  0.81948996    -0.62200
O693        O  0.89309583  0.67484567  0.79047547    -0.74700
O694        O  0.95392133  0.71885811  0.77479542    -0.73500
Cu695      Cu  0.90077144  0.73338542  0.79515214     1.04600
Cu696      Cu  0.92395821  0.69599086  0.78221630     1.04300
C697        C  0.95385324  0.74310675  0.77912737     0.92800
C698        C  0.87236166  0.68483702  0.79914015     0.91900
C699        C  0.92757793  0.70903196  0.83657819     0.84100
C700        C  0.89323738  0.71983110  0.74204702     0.90400
O701        O  0.59660123  0.80391138  0.70109071    -0.73400
O702        O  0.62059018  0.79336849  0.77264366    -0.74400
O703        O  0.57524739  0.77916242  0.74461060    -0.63000
O704        O  0.64033941  0.81911366  0.72946044    -0.71400
O705        O  0.62037423  0.85532911  0.74080247    -0.71000
O706        O  0.55634507  0.81543210  0.75709680    -0.62200
O707        O  0.60206913  0.82982397  0.78543425    -0.74700
O708        O  0.57655050  0.83999736  0.71240714    -0.73500
Cu709      Cu  0.60871859  0.79757824  0.73663271     1.04600
Cu710      Cu  0.58799345  0.83634323  0.74945074     1.04300
C711        C  0.58326925  0.82365524  0.69506978     0.92800
C712        C  0.61671893  0.81040472  0.78997303     0.91900
C713        C  0.55518226  0.79119459  0.75266436     0.84100
C714        C  0.64056078  0.84359764  0.73295979     0.90400
O715        O  0.68281103  0.82180532  0.94605512    -0.73400
O716        O  0.68907567  0.74767843  0.92286002    -0.74400
O717        O  0.70558806  0.77659327  0.96740616    -0.63000
O718        O  0.66575915  0.79273119  0.90338821    -0.71400
O719        O  0.70222224  0.80110583  0.88243375    -0.71000
O720        O  0.74212586  0.78715147  0.94779255    -0.62200
O721        O  0.72642811  0.75753413  0.90409803    -0.74700
O722        O  0.71875626  0.83117655  0.92485698    -0.73500
Cu723      Cu  0.68462860  0.78430244  0.93579594     1.04600
Cu724      Cu  0.72372502  0.79452503  0.91422132     1.04300
C725        C  0.69939713  0.83843740  0.93823413     0.92800
C726        C  0.70849388  0.74137921  0.90890852     0.91900
C727        C  0.73000807  0.77988370  0.96811944     0.84100
C728        C  0.67759992  0.79895592  0.88268854     0.90400
O729        O  0.81158164  0.76211628  0.56369455    -0.73400
O730        O  0.84926254  0.74083703  0.62712874    -0.74400
O731        O  0.83227613  0.71533212  0.58244659    -0.63000
O732        O  0.82785769  0.78761706  0.61017327    -0.71400
O733        O  0.78979415  0.77755274  0.62736141    -0.71000
O734        O  0.79564892  0.70540577  0.60215904    -0.62200
O735        O  0.81225053  0.73192695  0.64671210    -0.74700
O736        O  0.77424628  0.75114130  0.58140747    -0.73500
Cu737      Cu  0.83144022  0.75191435  0.59509603     1.04600
Cu738      Cu  0.79159472  0.74128518  0.61499960     1.04300
C739        C  0.78728031  0.75881502  0.56178161     0.92800
C740        C  0.83695186  0.73320155  0.64701608     0.91900
C741        C  0.81506654  0.69867635  0.58863729     0.84100
C742        C  0.80822431  0.79349359  0.62395806     0.90400
O743        O  0.81118477  0.94582416  0.69565060    -0.73400
O744        O  0.73834241  0.91960136  0.70402222    -0.74400
O745        O  0.76660062  0.96416405  0.72088646    -0.63000
O746        O  0.78292232  0.90289240  0.67793987    -0.71400
O747        O  0.79544529  0.88105170  0.71258485    -0.71000
O748        O  0.77852643  0.94379975  0.75649517    -0.62200
O749        O  0.75122093  0.89868441  0.73910224    -0.74700
O750        O  0.82242941  0.92445448  0.73100879    -0.73500
Cu751      Cu  0.77423482  0.93395518  0.69851516     1.04600
Cu752      Cu  0.78715039  0.91130975  0.73612167     1.04300
C753        C  0.82838114  0.93883756  0.71195404     0.92800
C754        C  0.73383871  0.90372693  0.72244644     0.91900
C755        C  0.77098434  0.96445862  0.74511975     0.84100
C756        C  0.79196735  0.88238174  0.68811464     0.90400
O757        O  0.22195670  0.75886282  0.62831950    -0.73400
O758        O  0.21832355  0.83050620  0.60275433    -0.74400
O759        O  0.19762813  0.80425632  0.64563059    -0.63000
O760        O  0.24151123  0.78528017  0.58339572    -0.71400
O761        O  0.20591658  0.77617847  0.56176673    -0.71000
O762        O  0.16283761  0.79320233  0.62333658    -0.62200
O763        O  0.18248307  0.82198086  0.58117187    -0.74700
O764        O  0.18716459  0.74752597  0.60611062    -0.73500
Cu765      Cu  0.22116182  0.79489497  0.61563902     1.04600
Cu766      Cu  0.18345825  0.78425575  0.59216682     1.04300
C767        C  0.20478063  0.74223389  0.62264829     0.92800
C768        C  0.19947227  0.83814220  0.58908737     0.91900
C769        C  0.17310233  0.80143888  0.64410077     0.84100
C770        C  0.23037812  0.77883857  0.56224161     0.90400
O771        O  0.27345315  0.61286604  0.69495291    -0.73400
O772        O  0.20117651  0.58407673  0.68699024    -0.74400
O773        O  0.22730875  0.62954678  0.67100219    -0.63000
O774        O  0.24737717  0.56582439  0.70977956    -0.71400
O775        O  0.23569064  0.58390742  0.74679194    -0.71000
O776        O  0.21641879  0.64867070  0.70767309    -0.62200
O777        O  0.19078321  0.60328013  0.72375111    -0.74700
O778        O  0.26148902  0.63017862  0.73232998    -0.73500
Cu779      Cu  0.23785265  0.59733708  0.68942605     1.04600
Cu780      Cu  0.22578031  0.61710537  0.72890493     1.04300
C781        C  0.27845866  0.62667311  0.71485901     0.92800
C782        C  0.18440550  0.58965908  0.70432672     0.91900
C783        C  0.21883258  0.64931141  0.68303366     0.84100
C784        C  0.24377874  0.56425651  0.73412508     0.90400
O785        O  0.26677798  0.74989203  0.94352876    -0.73400
O786        O  0.30711908  0.73205398  0.87907863    -0.74400
O787        O  0.29002095  0.70511540  0.92308218    -0.63000
O788        O  0.28282930  0.77663258  0.89795467    -0.71400
O789        O  0.31957975  0.78838463  0.91648188    -0.71000
O790        O  0.32640001  0.71521026  0.94306802    -0.62200
O791        O  0.34340924  0.74245594  0.89906076    -0.74700
O792        O  0.30348403  0.76110217  0.96225320    -0.73500
Cu793      Cu  0.28536338  0.74068324  0.91035029     1.04600
Cu794      Cu  0.32440920  0.75228318  0.93105923     1.04300
C795        C  0.27911282  0.75766721  0.96346895     0.92800
C796        C  0.33173093  0.73436102  0.87899147     0.91900
C797        C  0.30953267  0.69843225  0.93633866     0.84100
C798        C  0.30049511  0.79332209  0.90159321     0.90400
O799        O  0.39124379  0.67475087  0.73986660    -0.73400
O800        O  0.45483657  0.71526305  0.75441960    -0.74400
O801        O  0.40978000  0.70071653  0.78372745    -0.63000
O802        O  0.43444130  0.69025348  0.70985973    -0.71400
O803        O  0.41468302  0.72672303  0.69923795    -0.71000
O804        O  0.38987245  0.73628783  0.77031710    -0.62200
O805        O  0.43543363  0.75163703  0.74300647    -0.74700
O806        O  0.37092371  0.71022931  0.72686671    -0.73500
Cu807      Cu  0.42347375  0.69406282  0.74745434     1.04600
Cu808      Cu  0.40220190  0.73253753  0.73454697     1.04300
C809        C  0.37105842  0.68587494  0.73131999     0.92800
C810        C  0.45565923  0.73962650  0.75070519     0.91900
C811        C  0.39432813  0.71962107  0.78784479     0.84100
C812        C  0.42738860  0.70675846  0.69276964     0.90400
O813        O  0.09765429  0.83927381  0.74103260    -0.73400
O814        O  0.07433191  0.84519446  0.81508714    -0.74400
O815        O  0.11761543  0.86189568  0.78620208    -0.63000
O816        O  0.05246779  0.82309226  0.77021322    -0.71400
O817        O  0.07181952  0.78642362  0.78057406    -0.71000
O818        O  0.13763957  0.82502421  0.79472114    -0.62200
O819        O  0.09481438  0.80884940  0.82444702    -0.74700
O820        O  0.11603369  0.80176799  0.75099147    -0.73500
Cu821      Cu  0.08469431  0.84358846  0.77769474     1.04600
Cu822      Cu  0.10562905  0.80418654  0.78788669     1.04300
C823        C  0.11177183  0.81991858  0.73490325     0.92800
C824        C  0.08146179  0.82822539  0.83163291     0.91900
C825        C  0.13800876  0.84964693  0.79263029     0.84100
C826        C  0.05138250  0.79872060  0.77402441     0.90400
O827        O  0.26265586  0.96909929  0.81185323    -0.73400
O828        O  0.28116043  0.90716899  0.85368324    -0.74400
O829        O  0.30792122  0.95184423  0.83688694    -0.63000
O830        O  0.23583473  0.92308719  0.82729607    -0.71400
O831        O  0.24945057  0.90418626  0.79132570    -0.71000
O832        O  0.31973326  0.93094073  0.80149756    -0.62200
O833        O  0.29302266  0.88665897  0.81794329    -0.74700
O834        O  0.27601978  0.94990199  0.77614098    -0.73500
Cu835      Cu  0.27132702  0.93859430  0.83365986     1.04600
Cu836      Cu  0.28490422  0.91731276  0.79548707     1.04300
C837        C  0.26737167  0.96999261  0.78770996     0.92800
C838        C  0.28983476  0.88703767  0.84247008     0.91900
C839        C  0.32533030  0.94545971  0.82045686     0.84100
C840        C  0.23173935  0.90828893  0.80790303     0.90400
O841        O  0.09305003  0.73287937  0.33098356    -0.73400
O842        O  0.12085450  0.74324879  0.26061391    -0.74400
O843        O  0.07420687  0.75751904  0.28615934    -0.63000
O844        O  0.13843269  0.71782385  0.30507540    -0.71400
O845        O  0.11943323  0.68140984  0.29288694    -0.71000
O846        O  0.05615047  0.72092741  0.27329007    -0.62200
O847        O  0.10319290  0.70664983  0.24723612    -0.74700
O848        O  0.07416904  0.69660194  0.31877608    -0.73500
Cu849      Cu  0.10716095  0.73919033  0.29605637     1.04600
Cu850      Cu  0.08745248  0.70020796  0.28249074     1.04300
C851        C  0.07983107  0.71284997  0.33645506     0.92800
C852        C  0.11769937  0.72625919  0.24310134     0.91900
C853        C  0.05470846  0.74521619  0.27731624     0.84100
C854        C  0.13899081  0.69330239  0.30186885     0.90400
O855        O  0.23729791  0.61858018  0.33499335    -0.73400
O856        O  0.31104063  0.59235298  0.33987999    -0.74400
O857        O  0.28415734  0.63666944  0.35659159    -0.63000
O858        O  0.26428104  0.57232298  0.31921005    -0.71400
O859        O  0.27412190  0.59025314  0.28156973    -0.71000
O860        O  0.29289546  0.65585459  0.31926984    -0.62200
O861        O  0.31958840  0.61179855  0.30260268    -0.74700
O862        O  0.24767585  0.63610071  0.29725531    -0.73500
Cu863      Cu  0.27371374  0.60413838  0.33890885     1.04600
Cu864      Cu  0.28373943  0.62398854  0.29882464     1.04300
C865        C  0.23155746  0.63284348  0.31558420     0.92800
C866        C  0.32711272  0.59927647  0.32233863     0.91900
C867        C  0.29166750  0.65645942  0.34396494     0.84100
C868        C  0.26707567  0.57052865  0.29478162     0.90400
O869        O  0.18838650  0.79000921  0.11069606    -0.73400
O870        O  0.18331047  0.71584158  0.08686040    -0.74400
O871        O  0.16633248  0.74426988  0.13000037    -0.63000
O872        O  0.20469419  0.76163200  0.06533701    -0.71400
O873        O  0.24173711  0.75132899  0.08392270    -0.71000
O874        O  0.20339266  0.73751321  0.15038269    -0.62200
O875        O  0.21962696  0.70766402  0.10807386    -0.74700
O876        O  0.22664824  0.78098431  0.12780490    -0.73500
Cu877      Cu  0.18445399  0.75337185  0.09734221     1.04600
Cu878      Cu  0.22420265  0.74413695  0.11806544     1.04300
C879        C  0.20806113  0.79662736  0.12408124     0.92800
C880        C  0.20029761  0.69990592  0.09513605     0.91900
C881        C  0.17870989  0.73865308  0.15049243     0.84100
C882        C  0.22908612  0.75831670  0.06387397     0.90400
O883        O  0.31280575  0.78006992  0.46558959    -0.73400
O884        O  0.35472834  0.79754934  0.40347104    -0.74400
O885        O  0.33771749  0.82557837  0.44719567    -0.63000
O886        O  0.32860610  0.75245429  0.41974829    -0.71400
O887        O  0.29352788  0.76652355  0.39968369    -0.71000
O888        O  0.30178716  0.83687019  0.42720163    -0.62200
O889        O  0.31980697  0.81120819  0.38284786    -0.74700
O890        O  0.27680774  0.79200913  0.44587037    -0.73500
Cu891      Cu  0.33462181  0.78837029  0.43486117     1.04600
Cu892      Cu  0.29668885  0.80192412  0.41330357     1.04300
C893        C  0.28850873  0.78398140  0.46616199     0.92800
C894        C  0.34422009  0.80720150  0.38345418     0.91900
C895        C  0.32131922  0.84297854  0.44072882     0.84100
C896        C  0.30990099  0.74868951  0.40401528     0.90400
O897        O  0.44013482  0.79417916  0.24500483    -0.73400
O898        O  0.37462522  0.83310195  0.23050321    -0.74400
O899        O  0.41691087  0.81622765  0.20092716    -0.63000
O900        O  0.39665005  0.80978380  0.27437564    -0.71400
O901        O  0.41453183  0.84758413  0.28387950    -0.71000
O902        O  0.43761207  0.85264080  0.20930155    -0.62200
O903        O  0.39488756  0.87002264  0.23819195    -0.74700
O904        O  0.45924218  0.83097861  0.25502427    -0.73500
Cu905      Cu  0.40648191  0.81203161  0.23748033     1.04600
Cu906      Cu  0.42740704  0.85156126  0.24698538     1.04300
C907        C  0.46036018  0.80655018  0.25194470     0.92800
C908        C  0.37454388  0.85780675  0.23184599     0.91900
C909        C  0.43005021  0.83552918  0.19316022     0.84100
C910        C  0.40129602  0.82774744  0.29049196     0.90400
O911        O  0.24368706  0.97155344  0.21586474    -0.73400
O912        O  0.22994276  0.90817744  0.17530714    -0.74400
O913        O  0.19953259  0.95044264  0.19132647    -0.63000
O914        O  0.27342241  0.92727542  0.20100448    -0.71400
O915        O  0.26066272  0.90765559  0.23692599    -0.71000
O916        O  0.18847698  0.92975202  0.22709017    -0.62200
O917        O  0.21786491  0.88690269  0.21054107    -0.74700
O918        O  0.23171032  0.95222975  0.25203619    -0.73500
Cu919      Cu  0.23707292  0.94022678  0.19474527     1.04600
Cu920      Cu  0.22437545  0.91854436  0.23301031     1.04300
C921        C  0.23943388  0.97255007  0.24005908     0.92800
C922        C  0.22208218  0.88752811  0.18612392     0.91900
C923        C  0.18217291  0.94300981  0.20740629     0.84100
C924        C  0.27803807  0.91224292  0.22010552     0.90400
O925        O  0.62774890  0.23776608  0.75940122    -0.73400
O926        O  0.59477910  0.22830978  0.82801799    -0.74400
O927        O  0.64046688  0.20974584  0.80439102    -0.63000
O928        O  0.58059229  0.25548042  0.78288786    -0.71400
O929        O  0.55999357  0.22078708  0.76887740    -0.71000
O930        O  0.61923813  0.17604919  0.78863154    -0.62200
O931        O  0.57394685  0.19362167  0.81430754    -0.74700
O932        O  0.60634375  0.20410899  0.74381445    -0.73500
Cu933      Cu  0.61155445  0.23408755  0.79410885     1.04600
Cu934      Cu  0.58909574  0.19750600  0.77834892     1.04300
C935        C  0.62303557  0.22214530  0.74098584     0.92800
C936        C  0.57952790  0.20951543  0.83242280     0.91900
C937        C  0.63924962  0.18557081  0.79927243     0.84100
C938        C  0.56036314  0.24504011  0.77323435     0.90400
O939        O  0.73048033  0.40946931  0.66894857    -0.73400
O940        O  0.74890413  0.47000937  0.71202679    -0.74400
O941        O  0.77565317  0.42443947  0.69549103    -0.63000
O942        O  0.70333209  0.45354112  0.68699507    -0.71400
O943        O  0.69164222  0.43264141  0.72250576    -0.71000
O944        O  0.76150992  0.40326556  0.73001078    -0.62200
O945        O  0.73663833  0.44945240  0.74754870    -0.74700
O946        O  0.71647844  0.38809677  0.70343371    -0.73500
Cu947      Cu  0.74012201  0.44017372  0.68968095     1.04600
Cu948      Cu  0.72625031  0.41768605  0.72714313     1.04300
C949        C  0.72052492  0.38934504  0.67904548     0.92800
C950        C  0.74500822  0.46990803  0.73634046     0.91900
C951        C  0.77940584  0.40824514  0.71386121     0.84100
C952        C  0.68602578  0.44735404  0.70365394     0.90400
O953        O  0.68591768  0.29176461  0.60499868    -0.73400
O954        O  0.68004056  0.21800204  0.58034388    -0.74400
O955        O  0.66492715  0.24568772  0.62506873    -0.63000
O956        O  0.70075598  0.26410198  0.55893355    -0.71400
O957        O  0.73846812  0.25430381  0.57653819    -0.71000
O958        O  0.70246862  0.23727179  0.64369583    -0.62200
O959        O  0.71732048  0.20911471  0.59912612    -0.74700
O960        O  0.72425292  0.28225490  0.62162781    -0.73500
Cu961      Cu  0.68164564  0.25529758  0.59162171     1.04600
Cu962      Cu  0.72196877  0.24549217  0.61079147     1.04300
C963        C  0.70596062  0.29829227  0.61781469     0.92800
C964        C  0.69765792  0.20171216  0.58634737     0.91900
C965        C  0.67780955  0.23860506  0.64483083     0.84100
C966        C  0.72520948  0.26149223  0.55697046     0.90400
O967        O  0.81247522  0.09048854  0.84039135    -0.73400
O968        O  0.73726971  0.11123605  0.83516652    -0.74400
O969        O  0.76752854  0.06675310  0.81956545    -0.63000
O970        O  0.78231414  0.13241752  0.85686471    -0.71400
O971        O  0.78980023  0.15249776  0.81983299    -0.71000
O972        O  0.77650873  0.08546132  0.78215796    -0.62200
O973        O  0.74612859  0.12896369  0.79707806    -0.74700
O974        O  0.81987018  0.11049170  0.80330195    -0.73500
Cu975      Cu  0.77445437  0.09937663  0.83921598     1.04600
Cu976      Cu  0.78319756  0.11990853  0.79924752     1.04300
C977        C  0.82824215  0.09840079  0.82296787     0.92800
C978        C  0.73035741  0.12447594  0.81543145     0.91900
C979        C  0.77059827  0.06521616  0.79513913     0.84100
C980        C  0.78886489  0.15273560  0.84457079     0.90400
O981        O  0.94262774  0.29142561  0.74452065    -0.73400
O982        O  0.87628746  0.32909016  0.72835516    -0.74400
O983        O  0.91962808  0.31226793  0.69966456    -0.63000
O984        O  0.89827181  0.30666460  0.77284226    -0.71400
O985        O  0.91551829  0.34480000  0.78213222    -0.71000
O986        O  0.93933746  0.34939597  0.70736684    -0.62200
O987        O  0.89584221  0.36637406  0.73597989    -0.74700
O988        O  0.96094938  0.32893747  0.75363378    -0.73500
Cu989      Cu  0.90862412  0.30857519  0.73611966     1.04600
Cu990      Cu  0.92870655  0.34866053  0.74515085     1.04300
C991        C  0.96252116  0.30444791  0.75127840     0.92800
C992        C  0.87572622  0.35382795  0.72947933     0.91900
C993        C  0.93258558  0.33156977  0.69158602     0.84100
C994        C  0.90245324  0.32484392  0.78882690     0.90400
O995        O  0.81200340  0.27776141  0.96365927    -0.73400
O996        O  0.85419137  0.29413450  0.90112417    -0.74400
O997        O  0.83729065  0.32228076  0.94475860    -0.63000
O998        O  0.82797202  0.24943030  0.91862913    -0.71400
O999        O  0.79304597  0.26274709  0.89758330    -0.71000
O1000       O  0.80157249  0.33368009  0.92407382    -0.62200
O1001       O  0.81940391  0.30744627  0.88004528    -0.74700
O1002       O  0.77637827  0.28948101  0.94323185    -0.73500
Cu1003     Cu  0.83404120  0.28534989  0.93283201     1.04600
Cu1004     Cu  0.79629027  0.29859270  0.91057278     1.04300
C1005       C  0.78776685  0.28204114  0.96392228     0.92800
C1006       C  0.84382672  0.30363140  0.88091191     0.91900
C1007       C  0.82095621  0.33953661  0.93790986     0.84100
C1008       C  0.80927599  0.24512584  0.90310808     0.90400
O1009       O  0.24670173  0.13208873  0.73021673    -0.73400
O1010       O  0.31874460  0.10861066  0.72201519    -0.74400
O1011       O  0.29136652  0.15262821  0.70632007    -0.63000
O1012       O  0.27447168  0.08692092  0.74467390    -0.71400
O1013       O  0.26405587  0.06862827  0.70745338    -0.71000
O1014       O  0.28074401  0.13335574  0.66956756    -0.62200
O1015       O  0.30920381  0.08963426  0.68489964    -0.74700
O1016       O  0.23571969  0.11418670  0.69280479    -0.73500
Cu1017     Cu  0.28304136  0.12064459  0.72714797     1.04600
Cu1018     Cu  0.27194179  0.10065656  0.68745464     1.04300
C1019       C  0.23014375  0.12793434  0.71257265     0.92800
C1020       C  0.32573331  0.09596047  0.70211633     0.91900
C1021       C  0.28896235  0.15308460  0.68172250     0.84100
C1022       C  0.26757144  0.06701450  0.73176612     0.90400
O1023       O  0.07931074  0.25821814  0.74474112    -0.73400
O1024       O  0.14113684  0.21347649  0.72684134    -0.74400
O1025       O  0.09731201  0.23184820  0.70066524    -0.63000
O1026       O  0.12509272  0.24107399  0.77069666    -0.71400
O1027       O  0.10455949  0.20625633  0.78500806    -0.71000
O1028       O  0.07564409  0.19701148  0.71285059    -0.62200
O1029       O  0.11917329  0.17926416  0.74039052    -0.74700
O1030       O  0.05904091  0.22312681  0.75825321    -0.73500
Cu1031     Cu  0.11133339  0.23745968  0.73541838     1.04600
Cu1032     Cu  0.08871032  0.20031375  0.74968994     1.04300
C1033       C  0.05886210  0.24727290  0.75347841     0.92800
C1034       C  0.13967978  0.18911419  0.73109042     0.91900
C1035       C  0.08287271  0.21277358  0.69514627     0.84100
C1036       C  0.12080678  0.22458306  0.78844530     0.90400
O1037       O  0.31438005  0.30803229  0.64950370    -0.73400
O1038       O  0.27126055  0.29122257  0.58703513    -0.74400
O1039       O  0.28925700  0.26341300  0.63085327    -0.63000
O1040       O  0.29527639  0.33579668  0.60671083    -0.71400
O1041       O  0.33033405  0.32574097  0.58433976    -0.71000
O1042       O  0.32592333  0.25274256  0.61119626    -0.62200
O1043       O  0.30708183  0.27969584  0.56665834    -0.74700
O1044       O  0.34991092  0.29883002  0.62744622    -0.73500
Cu1045     Cu  0.29128462  0.29987395  0.61927448     1.04600
Cu1046     Cu  0.32950549  0.28880036  0.59658433     1.04300
C1047       C  0.33902724  0.30636663  0.64817933     0.92800
C1048       C  0.28275104  0.28354846  0.56651607     0.91900
C1049       C  0.30671962  0.24688765  0.62561566     0.84100
C1050       C  0.31369439  0.34246959  0.59182510     0.90400
O1051       O  0.39690610  0.30219292  0.75726575    -0.73400
O1052       O  0.42583394  0.31003805  0.82748041    -0.74400
O1053       O  0.37953839  0.32518431  0.80293401    -0.63000
O1054       O  0.44394842  0.28745248  0.78145400    -0.71400
O1055       O  0.46187684  0.32459889  0.76993322    -0.71000
O1056       O  0.39715489  0.36232212  0.79104822    -0.62200
O1057       O  0.44345887  0.34745031  0.81624660    -0.74700
O1058       O  0.41451352  0.33920250  0.74454735    -0.73500
Cu1059     Cu  0.41108529  0.30490971  0.79259074     1.04600
Cu1060     Cu  0.43002832  0.34465795  0.77993960     1.04300
C1061       C  0.39978691  0.31983857  0.74031190     0.92800
C1062       C  0.43874949  0.33013757  0.83328561     0.91900
C1063       C  0.37794086  0.34967939  0.80007804     0.84100
C1064       C  0.46337538  0.30011441  0.77291994     0.90400
O1065       O  0.21907449  0.38690544  0.82507510    -0.73400
O1066       O  0.24043370  0.44727542  0.78004044    -0.74400
O1067       O  0.26513099  0.40111729  0.79913473    -0.63000
O1068       O  0.19478547  0.43120538  0.80497871    -0.71400
O1069       O  0.20639523  0.45269377  0.84002547    -0.71000
O1070       O  0.27842542  0.42298448  0.83343068    -0.62200
O1071       O  0.25230127  0.46822944  0.81525173    -0.74700
O1072       O  0.23236279  0.40886914  0.85931729    -0.73500
Cu1073     Cu  0.22960260  0.41589646  0.80100433     1.04600
Cu1074     Cu  0.24291450  0.43897525  0.83812847     1.04300
C1075       C  0.22222214  0.38871702  0.84953841     0.92800
C1076       C  0.24853301  0.46796623  0.79096223     0.91900
C1077       C  0.28271375  0.40652629  0.81547488     0.84100
C1078       C  0.18910850  0.44627229  0.82356270     0.90400
O1079       O  0.22397697  0.28356594  0.90615499    -0.73400
O1080       O  0.21979408  0.20937331  0.92482346    -0.74400
O1081       O  0.20286594  0.23921373  0.88269459    -0.63000
O1082       O  0.23995030  0.25383681  0.94941196    -0.71400
O1083       O  0.20225658  0.26197230  0.96805565    -0.71000
O1084       O  0.16553656  0.24585233  0.90268783    -0.62200
O1085       O  0.18262458  0.21663702  0.94477605    -0.74700
O1086       O  0.18575496  0.29137533  0.92415334    -0.73500
Cu1087     Cu  0.22303737  0.24636365  0.91518732     1.04600
Cu1088     Cu  0.18281727  0.25430856  0.93572753     1.04300
C1089       C  0.20532545  0.29884787  0.91106851     0.92800
C1090       C  0.20026954  0.20102117  0.93728992     0.91900
C1091       C  0.17815146  0.23973711  0.88244936     0.84100
C1092       C  0.22672413  0.25967370  0.96949785     0.90400
O1093       O  0.34810439  0.24640288  0.12785392    -0.73400
O1094       O  0.30629679  0.26492807  0.06655083    -0.74400
O1095       O  0.32278972  0.29168695  0.11237773    -0.63000
O1096       O  0.33097922  0.21907117  0.08393908    -0.71400
O1097       O  0.29511128  0.20791839  0.10437975    -0.71000
O1098       O  0.28757534  0.27812689  0.13276227    -0.62200
O1099       O  0.27051535  0.25312581  0.08672035    -0.74700
O1100       O  0.31302821  0.23318124  0.14874830    -0.73500
Cu1101     Cu  0.32819660  0.25604869  0.09678304     1.04600
Cu1102     Cu  0.29024458  0.24279820  0.11871283     1.04300
C1103       C  0.33742120  0.23698105  0.14794078     0.92800
C1104       C  0.28196058  0.26139082  0.06636399     0.91900
C1105       C  0.30449986  0.29548796  0.12863731     0.84100
C1106       C  0.31453285  0.20179175  0.09058019     0.90400
O1107       O  0.30735920  0.45207546  0.19191848    -0.73400
O1108       O  0.23483115  0.42471951  0.20289282    -0.74400
O1109       O  0.26201616  0.47116318  0.21677154    -0.63000
O1110       O  0.28016118  0.40752647  0.17711687    -0.71400
O1111       O  0.29268112  0.38813745  0.21322872    -0.71000
O1112       O  0.27437813  0.45249468  0.25314241    -0.62200
O1113       O  0.24850233  0.40610842  0.23900211    -0.74700
O1114       O  0.31890205  0.43296388  0.22841753    -0.73500
Cu1115     Cu  0.27050703  0.43968561  0.19597197     1.04600
Cu1116     Cu  0.28392137  0.41941757  0.23475233     1.04300
C1117       C  0.32480859  0.44581135  0.20827309     0.92800
C1118       C  0.23083756  0.40993424  0.22237446     0.91900
C1119       C  0.26587403  0.47237062  0.24106894     0.84100
C1120       C  0.28959940  0.38793770  0.18869424     0.90400
O1121       O  0.24767380  0.07071230  0.32057850    -0.73400
O1122       O  0.22872911  0.13255274  0.36206455    -0.74400
O1123       O  0.20208966  0.08773913  0.34517816    -0.63000
O1124       O  0.27420325  0.11706791  0.33583829    -0.71400
O1125       O  0.26003733  0.13648083  0.30040808    -0.71000
O1126       O  0.19043387  0.10824921  0.30955718    -0.62200
O1127       O  0.21534854  0.15314118  0.32700580    -0.74700
O1128       O  0.23467008  0.08992149  0.28472567    -0.73500
Cu1129     Cu  0.23875423  0.10126466  0.34211978     1.04600
Cu1130     Cu  0.22486593  0.12259858  0.30415233     1.04300
C1131       C  0.24288965  0.06970404  0.29649099     0.92800
C1132       C  0.21885244  0.15249126  0.35149991     0.91900
C1133       C  0.18476093  0.09381069  0.32860866     0.84100
C1134       C  0.27792996  0.13236776  0.31670978     0.90400
O1135       O  0.41007342  0.20281231  0.24624809    -0.73400
O1136       O  0.43344120  0.19804490  0.32007519    -0.74400
O1137       O  0.39079665  0.18014579  0.29178011    -0.63000
O1138       O  0.45441182  0.21961015  0.27462756    -0.71400
O1139       O  0.43565925  0.25657412  0.28515380    -0.71000
O1140       O  0.37002520  0.21690753  0.29920869    -0.62200
O1141       O  0.41202322  0.23420722  0.32865278    -0.74700
O1142       O  0.39217122  0.24071693  0.25560734    -0.73500
Cu1143     Cu  0.42300206  0.19892722  0.28275618     1.04600
Cu1144     Cu  0.40181828  0.23843795  0.29234749     1.04300
C1145       C  0.39680586  0.22259139  0.23968144     0.92800
C1146       C  0.42570320  0.21521238  0.33610144     0.91900
C1147       C  0.37025033  0.19217622  0.29799255     0.84100
C1148       C  0.45582779  0.24390884  0.27840136     0.90400
O1149       O  0.11919696  0.29736317  0.27374072    -0.73400
O1150       O  0.09681418  0.30710298  0.20180201    -0.74400
O1151       O  0.13934930  0.32389960  0.23126015    -0.63000
O1152       O  0.07550691  0.28169813  0.24494692    -0.71400
O1153       O  0.05541832  0.31723106  0.25744761    -0.71000
O1154       O  0.11796471  0.35946738  0.24201802    -0.62200
O1155       O  0.07519171  0.34229968  0.21280547    -0.74700
O1156       O  0.09970203  0.33335057  0.28643694    -0.73500
Cu1157     Cu  0.10832394  0.30126471  0.23760312     1.04600
Cu1158     Cu  0.08618374  0.33929086  0.25013153     1.04300
C1159       C  0.11446173  0.31406139  0.29116300     0.92800
C1160       C  0.08271327  0.32624578  0.19555230     0.91900
C1161       C  0.13870763  0.34838763  0.23470770     0.84100
C1162       C  0.05506243  0.29300346  0.25309280     0.90400
O1163       O  0.17814838  0.32543867  0.44831431    -0.73400
O1164       O  0.18205296  0.25032421  0.42647544    -0.74400
O1165       O  0.19958847  0.27985078  0.47062038    -0.63000
O1166       O  0.16015470  0.29587817  0.40606420    -0.71400
O1167       O  0.19708863  0.30255469  0.38538572    -0.71000
O1168       O  0.23628615  0.28873957  0.45059777    -0.62200
O1169       O  0.21981671  0.25879121  0.40789808    -0.74700
O1170       O  0.21452575  0.33276914  0.42695316    -0.73500
Cu1171     Cu  0.17872964  0.28751021  0.43876601     1.04600
Cu1172     Cu  0.21820569  0.29592644  0.41713074     1.04300
C1173       C  0.19551826  0.34110683  0.44020643     0.92800
C1174       C  0.20147291  0.24318862  0.41288664     0.91900
C1175       C  0.22409856  0.28244308  0.47118597     0.84100
C1176       C  0.17244687  0.30126488  0.38538017     0.90400
O1177       O  0.71343863  0.33379946  0.10163621    -0.73400
O1178       O  0.72051553  0.26059934  0.12270723    -0.74400
O1179       O  0.73807880  0.29022608  0.07969127    -0.63000
O1180       O  0.69515150  0.30431981  0.14332912    -0.71400
O1181       O  0.65974577  0.29422184  0.12146783    -0.71000
O1182       O  0.70247965  0.28000763  0.05865390    -0.62200
O1183       O  0.68452509  0.25003969  0.10197917    -0.74700
O1184       O  0.67798188  0.32454640  0.07978761    -0.73500
Cu1185     Cu  0.71807715  0.29746736  0.11250337     1.04600
Cu1186     Cu  0.68001743  0.28679264  0.08956754     1.04300
C1187       C  0.69433561  0.34112954  0.08801226     0.92800
C1188       C  0.70342598  0.24399155  0.11664498     0.91900
C1189       C  0.72687746  0.28339042  0.05874499     0.84100
C1190       C  0.67062534  0.30165283  0.14223098     0.90400
O1191       O  0.64195825  0.32205975  0.29420595    -0.73400
O1192       O  0.57482423  0.28394687  0.28340506    -0.74400
O1193       O  0.61760601  0.29792420  0.25173794    -0.63000
O1194       O  0.60037810  0.30670806  0.32595695    -0.71400
O1195       O  0.57957942  0.34309496  0.31708218    -0.71000
O1196       O  0.60025075  0.33607771  0.24244340    -0.62200
O1197       O  0.55643386  0.32108377  0.27294960    -0.74700
O1198       O  0.62149787  0.35902268  0.28681679    -0.73500
Cu1199     Cu  0.60931129  0.30128359  0.28905590     1.04600
Cu1200     Cu  0.58865241  0.34102027  0.27940640     1.04300
C1201       C  0.64199870  0.34676101  0.29259013     0.92800
C1202       C  0.55473169  0.29683322  0.27688132     0.91900
C1203       C  0.61283343  0.31591691  0.23562392     0.84100
C1204       C  0.58745390  0.32628640  0.33341982     0.90400
O1205       O  0.69923048  0.09100644  0.18711841    -0.73400
O1206       O  0.77154897  0.11791591  0.19853435    -0.74400
O1207       O  0.74327807  0.07336756  0.21453310    -0.63000
O1208       O  0.72803702  0.13408555  0.17016723    -0.71400
O1209       O  0.71274639  0.15574637  0.20387762    -0.71000
O1210       O  0.73072085  0.09462330  0.24938685    -0.62200
O1211       O  0.75669956  0.14017663  0.23204706    -0.74700
O1212       O  0.68656608  0.11185515  0.22223471    -0.73500
Cu1213     Cu  0.73606203  0.10323829  0.19147223     1.04600
Cu1214     Cu  0.72130467  0.12626544  0.22817103     1.04300
C1215       C  0.68129901  0.09783171  0.20275081     0.92800
C1216       C  0.77500533  0.13437814  0.21664011     0.91900
C1217       C  0.73921549  0.07390261  0.23883170     0.84100
C1218       C  0.71773778  0.15431345  0.17968395     0.90400
O1219       O  0.91503405  0.22912126  0.20100066    -0.73400
O1220       O  0.89550128  0.23305604  0.27482209    -0.74400
O1221       O  0.93902482  0.24916581  0.24573325    -0.63000
O1222       O  0.87264150  0.21192042  0.23041183    -0.71400
O1223       O  0.89244147  0.17446180  0.23654803    -0.71000
O1224       O  0.95752323  0.21144788  0.25398808    -0.62200
O1225       O  0.91293644  0.19458117  0.28258703    -0.74700
O1226       O  0.93550516  0.19203496  0.20770230    -0.73500
Cu1227     Cu  0.90499117  0.23215503  0.23781152     1.04600
Cu1228     Cu  0.92542877  0.19185609  0.24553431     1.04300
C1229       C  0.92775156  0.20990171  0.19243081     0.92800
C1230       C  0.89997432  0.21427032  0.29006908     0.91900
C1231       C  0.95899498  0.23595272  0.25183956     0.84100
C1232       C  0.87213038  0.18718058  0.23097436     0.90400
O1233       O  0.76721487  0.25104714  0.43752280    -0.73400
O1234       O  0.81239181  0.22933092  0.37724120    -0.74400
O1235       O  0.79228328  0.20547816  0.42165374    -0.63000
O1236       O  0.78621748  0.27503149  0.39132334    -0.71400
O1237       O  0.82073758  0.28873071  0.41252076    -0.71000
O1238       O  0.82733924  0.21701649  0.44323813    -0.62200
O1239       O  0.84663152  0.24268237  0.39908185    -0.74700
O1240       O  0.80223420  0.26331681  0.45845450    -0.73500
Cu1241     Cu  0.78824826  0.23994753  0.40628302     1.04600
Cu1242     Cu  0.82536128  0.25349920  0.42918968     1.04300
C1243       C  0.77787206  0.25967060  0.45808119     0.92800
C1244       C  0.83684411  0.23255539  0.37891935     0.91900
C1245       C  0.81098907  0.19974961  0.43647240     0.84100
C1246       C  0.80288880  0.29251070  0.39584674     0.90400
O1247       O  0.82121904  0.43271794  0.29933612    -0.73400
O1248       O  0.75060369  0.40659095  0.28816632    -0.74400
O1249       O  0.77707226  0.45290505  0.27456185    -0.63000
O1250       O  0.79420639  0.38781431  0.31369279    -0.71400
O1251       O  0.78222870  0.40690008  0.35016527    -0.71000
O1252       O  0.76370078  0.47096146  0.31086966    -0.62200
O1253       O  0.73702265  0.42395772  0.32489620    -0.74700
O1254       O  0.80905922  0.45200835  0.33547096    -0.73500
Cu1255     Cu  0.78610823  0.41953635  0.29263765     1.04600
Cu1256     Cu  0.77243837  0.43928389  0.33155961     1.04300
C1257       C  0.82681014  0.44577096  0.31939478     0.92800
C1258       C  0.73307969  0.40952280  0.30520852     0.91900
C1259       C  0.76812700  0.47252950  0.28662502     0.84100
C1260       C  0.79098806  0.38721502  0.33820503     0.90400
O1261       O  0.77214197  0.79070952  0.08629658    -0.73400
O1262       O  0.81361727  0.81313714  0.14801444    -0.74400
O1263       O  0.79397302  0.83766534  0.10345218    -0.63000
O1264       O  0.79139294  0.76659918  0.13221096    -0.71400
O1265       O  0.82738605  0.75549913  0.11163297    -0.71000
O1266       O  0.83042498  0.82793083  0.08332189    -0.62200
O1267       O  0.84968049  0.80261156  0.12764145    -0.74700
O1268       O  0.80848445  0.78088369  0.06602114    -0.73500
Cu1269     Cu  0.79146429  0.80224482  0.11809528     1.04600
Cu1270     Cu  0.83017633  0.79130607  0.09629486     1.04300
C1271       C  0.78390649  0.78298180  0.06595800     0.92800
C1272       C  0.83823673  0.81125181  0.14772492     0.91900
C1273       C  0.81300747  0.84441204  0.08933716     0.84100
C1274       C  0.80935015  0.75034557  0.12772918     0.90400
O1275       O  0.72420876  0.89039730  0.31940043    -0.73400
O1276       O  0.73873751  0.95598063  0.28033460    -0.74400
O1277       O  0.76803507  0.91229419  0.29607846    -0.63000
O1278       O  0.69463564  0.93287754  0.30271435    -0.71400
O1279       O  0.70352090  0.95303755  0.33935988    -0.71000
O1280       O  0.77751358  0.93035874  0.33381102    -0.62200
O1281       O  0.74846446  0.97500925  0.31741561    -0.74700
O1282       O  0.73235989  0.91044688  0.35634552    -0.73500
Cu1283     Cu  0.73118080  0.92228492  0.29829344     1.04600
Cu1284     Cu  0.74087688  0.94306084  0.33794253     1.04300
C1285       C  0.72604092  0.89011548  0.34404322     0.92800
C1286       C  0.74531955  0.97614664  0.29298116     0.91900
C1287       C  0.78399613  0.91677876  0.31421014     0.84100
C1288       C  0.68723157  0.94584684  0.32227964     0.90400
O1289       O  0.93586967  0.78814005  0.28401288    -0.73400
O1290       O  0.87407533  0.83261208  0.30200581    -0.74400
O1291       O  0.89169207  0.80774629  0.25710937    -0.63000
O1292       O  0.91640069  0.81212260  0.32908739    -0.71400
O1293       O  0.93858308  0.84751654  0.32005018    -0.71000
O1294       O  0.91430808  0.84246043  0.24579685    -0.62200
O1295       O  0.89683467  0.86724536  0.29092541    -0.74700
O1296       O  0.95766529  0.82361437  0.27435554    -0.73500
Cu1297     Cu  0.90386395  0.80884227  0.29330133     1.04600
Cu1298     Cu  0.92777155  0.84634999  0.28238075     1.04300
C1299       C  0.95689962  0.79911667  0.27692407     0.92800
C1300       C  0.87587500  0.85708256  0.29881118     0.91900
C1301       C  0.89794889  0.82474013  0.24043496     0.84100
C1302       C  0.93062171  0.83071507  0.33646895     0.90400
O1303       O  0.74991300  0.63986681  0.23227271    -0.73400
O1304       O  0.82016348  0.61063616  0.22748346    -0.74400
O1305       O  0.79645781  0.65621185  0.21000245    -0.63000
O1306       O  0.77370115  0.59259243  0.24903694    -0.71400
O1307       O  0.76347891  0.57417301  0.21186123    -0.71000
O1308       O  0.78608800  0.63706038  0.17318895    -0.62200
O1309       O  0.81070548  0.59165001  0.19041673    -0.74700
O1310       O  0.73866592  0.62133414  0.19532814    -0.73500
Cu1311     Cu  0.78524878  0.62535841  0.23103612     1.04600
Cu1312     Cu  0.77421086  0.60526392  0.19148126     1.04300
C1313       C  0.73363541  0.63654678  0.21416841     0.92800
C1314       C  0.82707125  0.59728743  0.20804378     0.91900
C1315       C  0.79500514  0.65653109  0.18531331     0.84100
C1316       C  0.76605418  0.57280364  0.23635462     0.90400
O1317       O  0.73129208  0.77938566  0.39918835    -0.73400
O1318       O  0.72080871  0.70741383  0.42088897    -0.74400
O1319       O  0.70572082  0.73695115  0.37788514    -0.63000
O1320       O  0.74529959  0.75042129  0.44372273    -0.71400
O1321       O  0.70885972  0.76255545  0.46243728    -0.71000
O1322       O  0.66943056  0.74736997  0.39817829    -0.62200
O1323       O  0.68464885  0.71784992  0.44142387    -0.74700
O1324       O  0.69449451  0.79166301  0.41746229    -0.73500
Cu1325     Cu  0.72710374  0.74321948  0.40991250     1.04600
Cu1326     Cu  0.68816053  0.75532287  0.43075356     1.04300
C1327       C  0.71415285  0.79654749  0.40322825     0.92800
C1328       C  0.70087445  0.70084186  0.43366842     0.91900
C1329       C  0.68120827  0.74023162  0.37774947     0.84100
C1330       C  0.73306776  0.75831998  0.46376717     0.90400
O1331       O  0.64218755  0.72406062  0.22321937    -0.73400
O1332       O  0.57755868  0.76379155  0.24223220    -0.74400
O1333       O  0.62395626  0.74831517  0.26811255    -0.63000
O1334       O  0.59748590  0.74043809  0.19708307    -0.71400
O1335       O  0.57825549  0.70373473  0.20761464    -0.71000
O1336       O  0.60530669  0.71165190  0.28024017    -0.62200
O1337       O  0.55923553  0.72679632  0.25346817    -0.74700
O1338       O  0.62260001  0.68765690  0.23448419    -0.73500
Cu1339     Cu  0.61082232  0.74551019  0.23238111     1.04600
Cu1340     Cu  0.59053349  0.70628408  0.24445913     1.04300
C1341       C  0.64248718  0.69946255  0.22602979     0.92800
C1342       C  0.55774456  0.75112792  0.24997368     0.91900
C1343       C  0.62016701  0.73080880  0.28502283     0.84100
C1344       C  0.58454683  0.72061367  0.19060783     0.90400
C1345       C  0.64024254  0.72827358  0.35564765    -0.26800
C1346       C  0.66610252  0.73647929  0.35382514    -0.14800
C1347       C  0.67653955  0.74257561  0.32939486     0.35800
C1348       C  0.66093152  0.74037251  0.30743659    -0.26200
C1349       C  0.63513614  0.73216695  0.30920659    -0.15500
C1350       C  0.62468839  0.72578343  0.33352246     0.36900
N1351       N  0.59817479  0.71792137  0.33583619    -0.89700
H1352       H  0.63214368  0.72377138  0.37443765     0.18000
H1353       H  0.66896525  0.74525753  0.28871778     0.18000
N1354       N  0.70263294  0.75176876  0.32699013    -0.88700
H1355       H  0.59313309  0.71555744  0.35526699     0.35400
H1356       H  0.59647911  0.69968715  0.32736122     0.40500
H1357       H  0.70357684  0.76974072  0.33614203     0.40100
H1358       H  0.70738533  0.75498640  0.30760750     0.35000
C1359       C  0.71253111  0.67861558  0.22096699    -0.26800
C1360       C  0.70993946  0.65235116  0.21465436    -0.14800
C1361       C  0.68515026  0.64213126  0.21018053     0.35800
C1362       C  0.66348629  0.65807030  0.21320282    -0.26200
C1363       C  0.66601561  0.68422338  0.22032977    -0.15500
C1364       C  0.69090706  0.69468855  0.22384201     0.36900
N1365       N  0.69419070  0.72125149  0.23127356    -0.89700
H1366       H  0.73162959  0.68655154  0.22413384     0.18000
H1367       H  0.64448070  0.64981506  0.21036400     0.18000
N1368       N  0.68133620  0.61551508  0.20368525    -0.88700
H1369       H  0.71377704  0.72593537  0.23253099     0.35400
H1370       H  0.68659924  0.72331066  0.24988524     0.40500
H1371       H  0.68970135  0.60410631  0.21810259     0.40100
H1372       H  0.69075660  0.61178192  0.18621479     0.35000
C1373       C  0.83985902  0.87172215  0.32695881    -0.26800
C1374       C  0.85352308  0.87394778  0.30364182    -0.14800
C1375       C  0.84537920  0.89211644  0.28491821     0.35800
C1376       C  0.82339087  0.90697442  0.28948379    -0.26200
C1377       C  0.80950215  0.90455664  0.31257040    -0.15500
C1378       C  0.81785417  0.88697181  0.33167979     0.36900
N1379       N  0.80335952  0.88386583  0.35520706    -0.89700
H1380       H  0.84618755  0.85784864  0.34131484     0.18000
H1381       H  0.81664885  0.92004197  0.27455906     0.18000
N1382       N  0.85826411  0.89500610  0.26055634    -0.88700
H1383       H  0.81222434  0.87027977  0.36725247     0.35400
H1384       H  0.78532022  0.87625036  0.35037143     0.40500
H1385       H  0.85902657  0.87699985  0.25145452     0.40100
H1386       H  0.87705696  0.90150527  0.26380809     0.35000
C1387       C  0.71039725  0.86724900  0.38339188    -0.26800
C1388       C  0.72162154  0.86604588  0.35861623    -0.14800
C1389       C  0.73035349  0.84215138  0.34896422     0.35800
C1390       C  0.72796132  0.82009383  0.36436310    -0.26200
C1391       C  0.71662370  0.82112347  0.38902413    -0.15500
C1392       C  0.70761515  0.84490008  0.39867891     0.36900
N1393       N  0.69623964  0.84636010  0.42398366    -0.89700
H1394       H  0.70389755  0.88570316  0.39085297     0.18000
H1395       H  0.73472057  0.80177894  0.35679485     0.18000
N1396       N  0.74259600  0.84045347  0.32404819    -0.88700
H1397       H  0.69061758  0.86532218  0.42811962     0.35400
H1398       H  0.71052936  0.84150713  0.43737640     0.40500
H1399       H  0.72827765  0.84304834  0.31009124     0.40100
H1400       H  0.75004020  0.82191835  0.32099176     0.35000
C1401       C  0.81247049  0.70233600  0.13036768    -0.26800
C1402       C  0.80950421  0.72619058  0.14272115    -0.14800
C1403       C  0.80521420  0.72702731  0.16964794     0.35800
C1404       C  0.80176500  0.70392533  0.18336302    -0.26200
C1405       C  0.80257514  0.67998612  0.17073653    -0.15500
C1406       C  0.80893488  0.67918948  0.14414106     0.36900
N1407       N  0.81163913  0.65499306  0.13099668    -0.89700
H1408       H  0.81642152  0.70165733  0.10980982     0.18000
H1409       H  0.79741587  0.70473415  0.20382913     0.18000
N1410       N  0.80403090  0.75144679  0.18287227    -0.88700
H1411       H  0.79848861  0.65466628  0.11570428     0.35400
H1412       H  0.83025483  0.65410171  0.12320189     0.40500
H1413       H  0.82221416  0.76008784  0.18133150     0.40100
H1414       H  0.80054775  0.74873009  0.20259436     0.35000
C1415       C  0.88087956  0.81589074  0.16991971    -0.26800
C1416       C  0.85371702  0.81812887  0.17094750    -0.14800
C1417       C  0.84190224  0.82511569  0.19463667     0.35800
C1418       C  0.85719298  0.82782573  0.21676831    -0.26200
C1419       C  0.88400861  0.82462239  0.21578391    -0.15500
C1420       C  0.89614038  0.81905130  0.19217108     0.36900
N1421       N  0.92366598  0.81569915  0.19108034    -0.89700
H1422       H  0.89024776  0.81083894  0.15189379     0.18000
H1423       H  0.84806993  0.83214062  0.23513853     0.18000
N1424       N  0.81444464  0.82883062  0.19646924    -0.88700
H1425       H  0.92957703  0.81161311  0.17219586     0.35400
H1426       H  0.92830907  0.79948413  0.20221854     0.40500
H1427       H  0.80991169  0.84541184  0.18584370     0.40100
H1428       H  0.80891296  0.83265794  0.21552806     0.35000
C1429       C  0.76126919  0.52032311  0.28801896    -0.26800
C1430       C  0.76409963  0.49773498  0.27306262    -0.14800
C1431       C  0.76438714  0.50024880  0.24577521     0.35800
C1432       C  0.76319928  0.52479594  0.23446485    -0.26200
C1433       C  0.76221269  0.54741975  0.24947251    -0.15500
C1434       C  0.76035113  0.54504068  0.27659650     0.36900
N1435       N  0.75797754  0.56766123  0.29252390    -0.89700
H1436       H  0.76061870  0.51885511  0.30888382     0.18000
H1437       H  0.76439655  0.52611539  0.21360210     0.18000
N1438       N  0.76618952  0.47844376  0.22884078    -0.88700
H1439       H  0.75718291  0.56259061  0.31206198     0.35400
H1440       H  0.74029813  0.57637637  0.28814102     0.40500
H1441       H  0.75126477  0.46555479  0.23322145     0.40100
H1442       H  0.78402942  0.46941905  0.23147613     0.35000
C1443       C  0.80875244  0.34026958  0.39191852    -0.26800
C1444       C  0.80164689  0.31669816  0.38066273    -0.14800
C1445       C  0.79303344  0.31630312  0.35471865     0.35800
C1446       C  0.79050388  0.33957440  0.34110334    -0.26200
C1447       C  0.79641298  0.36324336  0.35270696    -0.15500
C1448       C  0.80612222  0.36363816  0.37820879     0.36900
N1449       N  0.81326063  0.38770736  0.39004385    -0.89700
H1450       H  0.81576705  0.34051215  0.41162009     0.18000
H1451       H  0.78323136  0.33927921  0.32148758     0.18000
N1452       N  0.78694882  0.29224747  0.34221436    -0.88700
H1453       H  0.82874964  0.39531363  0.37951661     0.35400
H1454       H  0.81996255  0.38462920  0.40883719     0.40500
H1455       H  0.80405229  0.28159974  0.34075654     0.40100
H1456       H  0.78054013  0.29540835  0.32333045     0.35000
C1457       C  0.86745342  0.19873951  0.32102415    -0.26800
C1458       C  0.88824676  0.21535149  0.31587370    -0.14800
C1459       C  0.89310542  0.23634263  0.33257585     0.35800
C1460       C  0.87620810  0.24102408  0.35314489    -0.26200
C1461       C  0.85435029  0.22550500  0.35739668    -0.15500
C1462       C  0.85021672  0.20372584  0.34149644     0.36900
N1463       N  0.82872150  0.18676461  0.34611234    -0.89700
H1464       H  0.86360655  0.18286965  0.30793022     0.18000
H1465       H  0.87979688  0.25757038  0.36544795     0.18000
N1466       N  0.91449273  0.25370634  0.32882957    -0.88700
H1467       H  0.82961813  0.17076763  0.33381670     0.35400
H1468       H  0.81192919  0.19675505  0.34108538     0.40500
H1469       H  0.92632291  0.24777438  0.31359909     0.40100
H1470       H  0.92597616  0.25276558  0.34539174     0.35000
C1471       C  0.74087258  0.02393979  0.29337699    -0.26800
C1472       C  0.74753315  0.00145130  0.27970605    -0.14800
C1473       C  0.75385052  0.00337227  0.25329564     0.35800
C1474       C  0.75193139  0.02743434  0.24084937    -0.26200
C1475       C  0.74359555  0.04977689  0.25406500    -0.15500
C1476       C  0.73847300  0.04797923  0.28088298     0.36900
N1477       N  0.73016925  0.07020250  0.29532901    -0.89700
H1478       H  0.73603444  0.02251979  0.31370542     0.18000
H1479       H  0.75639077  0.02848010  0.22042513     0.18000
N1480       N  0.76194181  0.98087848  0.23913030    -0.88700
H1481       H  0.72894874  0.06585974  0.31502345     0.35400
H1482       H  0.71136460  0.07456588  0.28944874     0.40500
H1483       H  0.77943925  0.97466337  0.24701005     0.40100
H1484       H  0.76566164  0.98554256  0.21980873     0.35000
C1485       C  0.82436632  0.18678970  0.22850345    -0.26800
C1486       C  0.84767702  0.17324476  0.22590995    -0.14800
C1487       C  0.84703427  0.14658708  0.21953299     0.35800
C1488       C  0.82308309  0.13420710  0.21624752    -0.26200
C1489       C  0.79992336  0.14777680  0.21949848    -0.15500
C1490       C  0.80063649  0.17433053  0.22549839     0.36900
N1491       N  0.77723457  0.18888857  0.22812484    -0.89700
H1492       H  0.82443754  0.20715406  0.23336802     0.18000
H1493       H  0.82246275  0.11381967  0.21152961     0.18000
N1494       N  0.87055297  0.13214944  0.21639222    -0.88700
H1495       H  0.77762217  0.20393661  0.21463104     0.35400
H1496       H  0.77690026  0.19704950  0.24659317     0.40500
H1497       H  0.88009937  0.13952788  0.20016705     0.40100
H1498       H  0.86659326  0.11274818  0.21241225     0.35000
C1499       C  0.66390356  0.38519725  0.31081888    -0.26800
C1500       C  0.66569077  0.36176132  0.29717970    -0.14800
C1501       C  0.68943408  0.35428919  0.28629135     0.35800
C1502       C  0.71081163  0.37062283  0.28892276    -0.26200
C1503       C  0.70917008  0.39413307  0.30250854    -0.15500
C1504       C  0.68546754  0.40142730  0.31377323     0.36900
N1505       N  0.68322562  0.42532310  0.32772812    -0.89700
H1506       H  0.64551249  0.39092710  0.31904148     0.18000
H1507       H  0.72905698  0.36468113  0.28054483     0.18000
N1508       N  0.69153445  0.33076930  0.27165498    -0.88700
H1509       H  0.66450227  0.42761956  0.33496569     0.35400
H1510       H  0.68623137  0.44037623  0.31457239     0.40500
H1511       H  0.68978186  0.31535986  0.28460652     0.40100
H1512       H  0.70989757  0.32910796  0.26339110     0.35000
C1513       C  0.68535025  0.21048247  0.14522654    -0.26800
C1514       C  0.70520802  0.21822748  0.12841093    -0.14800
C1515       C  0.72837489  0.20381570  0.12737297     0.35800
C1516       C  0.73169347  0.18301964  0.14429535    -0.26200
C1517       C  0.71254731  0.17622820  0.16225907    -0.15500
C1518       C  0.68884814  0.18965831  0.16237951     0.36900
N1519       N  0.66839259  0.18195546  0.17954981    -0.89700
H1520       H  0.66767198  0.22167875  0.14606460     0.18000
H1521       H  0.74972164  0.17237308  0.14376773     0.18000
N1522       N  0.74903473  0.20992818  0.10975664    -0.88700
H1523       H  0.65180391  0.19294539  0.17611585     0.35400
H1524       H  0.67418789  0.18629573  0.19837291     0.40500
H1525       H  0.74390405  0.22478297  0.09711652     0.40100
H1526       H  0.75209157  0.19370632  0.09811670     0.35000
C1527       C  0.63645552  0.28781661  0.17264919    -0.26800
C1528       C  0.65451047  0.30661281  0.16515161    -0.14800
C1529       C  0.65647637  0.32976463  0.17944011     0.35800
C1530       C  0.64095159  0.33331357  0.20128683    -0.26200
C1531       C  0.62399774  0.31388720  0.20960364    -0.15500
C1532       C  0.62142797  0.29105358  0.19503266     0.36900
N1533       N  0.60397477  0.27110600  0.20336409    -0.89700
H1534       H  0.63474261  0.27018284  0.16149802     0.18000
H1535       H  0.64320533  0.35074245  0.21266397     0.18000
N1536       N  0.67392710  0.34998693  0.17216459    -0.88700
H1537       H  0.60449339  0.25547086  0.19058882     0.35400
H1538       H  0.58527487  0.27866870  0.20256924     0.40500
H1539       H  0.66996841  0.35539878  0.15310911     0.40100
H1540       H  0.69278580  0.34289695  0.17307548     0.35000
C1541       C  0.03060231  0.25187261  0.24898233    -0.26800
C1542       C  0.03066490  0.27803623  0.25626188    -0.14800
C1543       C  0.00702773  0.28933229  0.26461188     0.35800
C1544       C  0.98425967  0.27480779  0.26407220    -0.26200
C1545       C  0.98411506  0.24914105  0.25545118    -0.15500
C1546       C  0.00783283  0.23742963  0.24840605     0.36900
N1547       N  0.00940482  0.21134697  0.23927157    -0.89700
H1548       H  0.04829879  0.24260615  0.24271564     0.18000
H1549       H  0.96633271  0.28395112  0.26988521     0.18000
N1550       N  0.00513979  0.31553122  0.27332338    -0.88700
H1551       H  0.99730661  0.20929701  0.22328469     0.35400
H1552       H  0.00339599  0.19887256  0.25400707     0.40500
H1553       H  0.00993305  0.32794889  0.25813872     0.40100
H1554       H  0.01783565  0.31820098  0.28877314     0.35000
C1555       C  0.13363372  0.31758015  0.36214748    -0.26800
C1556       C  0.15794394  0.30540696  0.36123243    -0.14800
C1557       C  0.16732433  0.29610654  0.33736776     0.35800
C1558       C  0.15245888  0.29908157  0.31525978    -0.26200
C1559       C  0.12826503  0.31134819  0.31594813    -0.15500
C1560       C  0.11871766  0.32084493  0.33963107     0.36900
N1561       N  0.09397273  0.33336118  0.34082979    -0.89700
H1562       H  0.12630361  0.32458715  0.38047038     0.18000
H1563       H  0.16022134  0.29190285  0.29716885     0.18000
N1564       N  0.19147627  0.28278504  0.33496173    -0.88700
H1565       H  0.08993376  0.33932801  0.35970041     0.35400
H1566       H  0.07998059  0.31962808  0.33603854     0.40500
H1567       H  0.19157850  0.26706634  0.34770773     0.40100
H1568       H  0.20642851  0.29542510  0.33966064     0.35000
C1569       C  0.48203749  0.28423940  0.27509276    -0.26800
C1570       C  0.48123980  0.25715272  0.27599902    -0.14800
C1571       C  0.50482922  0.24321690  0.27613410     0.35800
C1572       C  0.52835301  0.25666957  0.27518141    -0.26200
C1573       C  0.52919528  0.28376049  0.27481674    -0.15500
C1574       C  0.50560099  0.29772397  0.27452470     0.36900
N1575       N  0.50543919  0.32551895  0.27455543    -0.89700
H1576       H  0.46412643  0.29505866  0.27510017     0.18000
H1577       H  0.54623391  0.24581066  0.27555299     0.18000
N1578       N  0.50503532  0.21549223  0.27820972    -0.88700
H1579       H  0.48662896  0.33261353  0.27652156     0.35400
H1580       H  0.51186978  0.33162166  0.25639570     0.40500
H1581       H  0.49822820  0.21073507  0.29663893     0.40100
H1582       H  0.52387687  0.20829975  0.27711635     0.35000
C1583       C  0.30016832  0.17207040  0.30278647    -0.26800
C1584       C  0.30216054  0.14712021  0.31342098    -0.14800
C1585       C  0.32682966  0.13713475  0.31927707     0.35800
C1586       C  0.34876912  0.15217555  0.31419481    -0.26200
C1587       C  0.34664080  0.17714436  0.30353526    -0.15500
C1588       C  0.32205514  0.18705521  0.29753927     0.36900
N1589       N  0.31939182  0.21193502  0.28540382    -0.89700
H1590       H  0.28130995  0.17989650  0.29821680     0.18000
H1591       H  0.36763115  0.14428597  0.31863942     0.18000
N1592       N  0.33027960  0.11164911  0.32952194    -0.88700
H1593       H  0.29993679  0.21642653  0.28247226     0.35400
H1594       H  0.32784098  0.21072740  0.26707124     0.40500
H1595       H  0.32159475  0.09845599  0.31698382     0.40100
H1596       H  0.32109150  0.11060472  0.34748937     0.35000
C1597       C  0.22802465  0.17965410  0.38980511    -0.26800
C1598       C  0.21231968  0.17486957  0.36819735    -0.14800
C1599       C  0.19076684  0.19101316  0.36362921     0.35800
C1600       C  0.18596913  0.21196928  0.38034615    -0.26200
C1601       C  0.20263282  0.21743918  0.40095472    -0.15500
C1602       C  0.22361902  0.20097112  0.40596658     0.36900
N1603       N  0.24085168  0.20653445  0.42696898    -0.89700
H1604       H  0.24443676  0.16722463  0.39357104     0.18000
H1605       H  0.17014378  0.22506887  0.37630105     0.18000
N1606       N  0.17380200  0.18611883  0.34225319    -0.88700
H1607       H  0.25554244  0.19270419  0.42794054     0.35400
H1608       H  0.23027230  0.20497245  0.44412460     0.40500
H1609       H  0.18392285  0.19048946  0.32531649     0.40100
H1610       H  0.15804337  0.19874568  0.34273912     0.35000
C1611       C  0.20844435  0.36983643  0.23486887    -0.26800
C1612       C  0.20661838  0.39518298  0.22527796    -0.14800
C1613       C  0.18223760  0.40528733  0.21870581     0.35800
C1614       C  0.16017674  0.38962021  0.22172658    -0.26200
C1615       C  0.16220921  0.36408497  0.23093218    -0.15500
C1616       C  0.18659286  0.35427987  0.23770220     0.36900
N1617       N  0.18920231  0.32878113  0.24821660    -0.89700
H1618       H  0.22709355  0.36185588  0.24002632     0.18000
H1619       H  0.14135388  0.39731661  0.21683080     0.18000
N1620       N  0.17992308  0.43139028  0.20949114    -0.88700
H1621       H  0.19753393  0.33031132  0.26653185     0.35400
H1622       H  0.20187360  0.31837496  0.23640466     0.40500
H1623       H  0.18566060  0.44366943  0.22444308     0.40100
H1624       H  0.16062962  0.43580203  0.20554504     0.35000
C1625       C  0.30866039  0.34339913  0.13338348    -0.26800
C1626       C  0.30321499  0.31924669  0.14434797    -0.14800
C1627       C  0.29599088  0.31768886  0.17069192     0.35800
C1628       C  0.29244398  0.34040424  0.18493822    -0.26200
C1629       C  0.29625423  0.36465103  0.17359917    -0.15500
C1630       C  0.30528356  0.36622395  0.14780832     0.36900
N1631       N  0.31098218  0.39092709  0.13641598    -0.89700
H1632       H  0.31487482  0.34448610  0.11341117     0.18000
H1633       H  0.28600028  0.33916803  0.20483587     0.18000
N1634       N  0.29231695  0.29296494  0.18291541    -0.88700
H1635       H  0.31739082  0.38868739  0.11737963     0.35400
H1636       H  0.32634018  0.39897215  0.14672263     0.40500
H1637       H  0.28680680  0.29521790  0.20222593     0.40100
H1638       H  0.31017952  0.28353483  0.18307284     0.35000
C1639       C  0.36529845  0.20633347  0.20826769    -0.26800
C1640       C  0.38475920  0.22416295  0.21424361    -0.14800
C1641       C  0.38914713  0.24558294  0.19805805     0.35800
C1642       C  0.37391066  0.24870974  0.17598381    -0.26200
C1643       C  0.35369932  0.23152197  0.17050079    -0.15500
C1644       C  0.34943147  0.20996010  0.18660501     0.36900
N1645       N  0.32896843  0.19206424  0.18105912    -0.89700
H1646       H  0.36168738  0.19026823  0.22124292     0.18000
H1647       H  0.37710929  0.26529285  0.16357211     0.18000
N1648       N  0.40895009  0.26407651  0.20413537    -0.88700
H1649       H  0.32828989  0.17745827  0.19502004     0.35400
H1650       H  0.33332989  0.18308632  0.16349598     0.40500
H1651       H  0.40323839  0.27400696  0.22075984     0.40100
H1652       H  0.41041830  0.27798718  0.18953848     0.35000
C1653       C  0.24087225  0.25887373  0.04159712    -0.26800
C1654       C  0.26724915  0.26514666  0.04195277    -0.14800
C1655       C  0.27957124  0.27198690  0.01840120     0.35800
C1656       C  0.26571981  0.27057215  0.99514576    -0.26200
C1657       C  0.23976258  0.26299155  0.99473586    -0.15500
C1658       C  0.22705331  0.25748018  0.01832964     0.36900
N1659       N  0.20052112  0.24928702  0.01859515    -0.89700
H1660       H  0.23117740  0.25376198  0.05944544     0.18000
H1661       H  0.27536604  0.27520529  0.97712972     0.18000
N1662       N  0.30622838  0.27972914  0.01791723    -0.88700
H1663       H  0.19400158  0.24650518  0.03752723     0.35400
H1664       H  0.19965171  0.23123745  0.00957032     0.40500
H1665       H  0.30751432  0.29743963  0.02752976     0.40100
H1666       H  0.31247310  0.28307429  0.99898238     0.35000
C1667       C  0.22940215  0.36382200  0.88973284    -0.26800
C1668       C  0.21499101  0.36731391  0.86700310    -0.14800
C1669       C  0.19458327  0.35017085  0.86136528     0.35800
C1670       C  0.19022497  0.32891656  0.87770942    -0.26200
C1671       C  0.20596625  0.32451165  0.89925998    -0.15500
C1672       C  0.22539805  0.34229867  0.90569428     0.36900
N1673       N  0.24119712  0.33822472  0.92815101    -0.89700
H1674       H  0.24479290  0.37719743  0.89437005     0.18000
H1675       H  0.17547138  0.31490728  0.87281386     0.18000
N1676       N  0.17869589  0.35413153  0.83897221    -0.88700
H1677       H  0.25405494  0.35359734  0.93058651     0.35400
H1678       H  0.25250738  0.32181236  0.92490717     0.40500
H1679       H  0.16864132  0.37145859  0.84162560     0.40100
H1680       H  0.16479461  0.33956316  0.83751639     0.35000
C1681       C  0.35443183  0.39011333  0.81242290    -0.26800
C1682       C  0.35355513  0.36355660  0.80651327    -0.14800
C1683       C  0.32924567  0.35115244  0.80526950     0.35800
C1684       C  0.30663274  0.36582152  0.80829945    -0.26200
C1685       C  0.30752173  0.39234560  0.81382062    -0.15500
C1686       C  0.33168580  0.40451449  0.81665684     0.36900
N1687       N  0.33307824  0.43158507  0.82265875    -0.89700
H1688       H  0.37296842  0.39970558  0.81371615     0.18000
H1689       H  0.28803866  0.35638413  0.80657326     0.18000
N1690       N  0.32739861  0.32391026  0.80016078    -0.88700
H1691       H  0.35227532  0.43781226  0.82271255     0.35400
H1692       H  0.32631278  0.43395434  0.84154680     0.40500
H1693       H  0.30814433  0.31834925  0.79783237     0.40100
H1694       H  0.33403934  0.31419027  0.81656677     0.35000
C1695       C  0.24118036  0.27734069  0.54292345    -0.26800
C1696       C  0.26810025  0.28041171  0.54205162    -0.14800
C1697       C  0.28048117  0.28223523  0.51770447     0.35800
C1698       C  0.26568275  0.28133078  0.49506711    -0.26200
C1699       C  0.23865124  0.27932208  0.49584272    -0.15500
C1700       C  0.22630551  0.27663522  0.52018208     0.36900
N1701       N  0.19873888  0.27391435  0.52193884    -0.89700
H1702       H  0.23161351  0.27579700  0.56149610     0.18000
H1703       H  0.27542114  0.28328375  0.47663102     0.18000
N1704       N  0.30791824  0.28619950  0.51588942    -0.88700
H1705       H  0.19274935  0.27348491  0.54123764     0.35400
H1706       H  0.19398085  0.25589737  0.51417047     0.40500
H1707       H  0.31185610  0.30463555  0.52314824     0.40100
H1708       H  0.31399051  0.28631325  0.49661647     0.35000
C1709       C  0.34391364  0.30715409  0.69548726    -0.26800
C1710       C  0.35487288  0.31199277  0.67122215    -0.14800
C1711       C  0.38064950  0.32128943  0.66979440     0.35800
C1712       C  0.39497458  0.32448726  0.69251308    -0.26200
C1713       C  0.38426113  0.31823936  0.71657284    -0.15500
C1714       C  0.35822110  0.31031968  0.71812482     0.36900
N1715       N  0.34623557  0.30600994  0.74282859    -0.89700
H1716       H  0.32414760  0.30042737  0.69683651     0.18000
H1717       H  0.41475287  0.33121105  0.69130341     0.18000
N1718       N  0.39266823  0.32806523  0.64577470    -0.88700
H1719       H  0.32706513  0.30012631  0.74064155     0.35400
H1720       H  0.34568560  0.32385005  0.75226406     0.40500
H1721       H  0.38090504  0.34139558  0.63619148     0.40100
H1722       H  0.39461200  0.31147600  0.63446872     0.35000
C1723       C  0.12476783  0.22019695  0.83622361    -0.26800
C1724       C  0.13599297  0.22651362  0.81243269    -0.14800
C1725       C  0.16199743  0.23494455  0.81156816     0.35800
C1726       C  0.17556098  0.23860931  0.83466778    -0.26200
C1727       C  0.16387853  0.23367677  0.85856752    -0.15500
C1728       C  0.13847586  0.22372379  0.85928949     0.36900
N1729       N  0.12660064  0.21692232  0.88337266    -0.89700
H1730       H  0.10510780  0.21308298  0.83698619     0.18000
H1731       H  0.19519292  0.24580906  0.83399648     0.18000
N1732       N  0.17462025  0.23955259  0.78720370    -0.88700
H1733       H  0.12165598  0.19734825  0.88266651     0.35400
H1734       H  0.10958126  0.22763082  0.88525789     0.40500
H1735       H  0.17582165  0.22185496  0.77753805     0.40100
H1736       H  0.19359014  0.24584292  0.78999240     0.35000
C1737       C  0.18999876  0.13613200  0.73675421    -0.26800
C1738       C  0.20507715  0.14086228  0.71483060    -0.14800
C1739       C  0.19846880  0.16112188  0.69786882     0.35800
C1740       C  0.17681903  0.17654131  0.70338271    -0.26200
C1741       C  0.16174791  0.17196194  0.72545818    -0.15500
C1742       C  0.16813309  0.15120438  0.74212185     0.36900
N1743       N  0.15329237  0.14632200  0.76513734    -0.89700
H1744       H  0.19566799  0.12092805  0.75000805     0.18000
H1745       H  0.17186185  0.19237937  0.69060366     0.18000
N1746       N  0.21445017  0.16667070  0.67581336    -0.88700
H1747       H  0.16220707  0.13219599  0.77650105     0.35400
H1748       H  0.13566641  0.13838040  0.75942039     0.40500
H1749       H  0.23234521  0.17288966  0.68271568     0.40100
H1750       H  0.20680728  0.18205845  0.66518020     0.35000
C1751       C  0.27810001  0.18365193  0.64684166    -0.26800
C1752       C  0.29499309  0.17655785  0.66679417    -0.14800
C1753       C  0.31745527  0.19141625  0.67119043     0.35800
C1754       C  0.32206392  0.21342788  0.65610828    -0.26200
C1755       C  0.30438264  0.22113274  0.63713098    -0.15500
C1756       C  0.28235811  0.20605703  0.63224145     0.36900
N1757       N  0.26416665  0.21395039  0.61282515    -0.89700
H1758       H  0.26113058  0.17202793  0.64307823     0.18000
H1759       H  0.33888031  0.22523777  0.66003247     0.18000
N1760       N  0.33598800  0.18447561  0.69049798    -0.88700
H1761       H  0.24882395  0.20086932  0.61178686     0.35400
H1762       H  0.27361180  0.21329817  0.59496764     0.40500
H1763       H  0.34216279  0.16554535  0.68700558     0.40100
H1764       H  0.32708355  0.18518620  0.70860193     0.35000
C1765       C  0.74627166  0.27524307  0.98752513    -0.26800
C1766       C  0.77297452  0.27956637  0.98856908    -0.14800
C1767       C  0.78449279  0.28361497  0.01311802     0.35800
C1768       C  0.76916315  0.28383382  0.03544646    -0.26200
C1769       C  0.74226717  0.28033340  0.03439270    -0.15500
C1770       C  0.73088968  0.27555974  0.00984807     0.36900
N1771       N  0.70374924  0.27151648  0.00657856    -0.89700
H1772       H  0.73705531  0.27205790  0.96902462     0.18000
H1773       H  0.77849306  0.28750111  0.05379436     0.18000
N1774       N  0.81149338  0.28878487  0.01611286    -0.88700
H1775       H  0.69382289  0.28797285  0.01276472     0.35400
H1776       H  0.69813043  0.25547704  0.01752419     0.40500
H1777       H  0.81635295  0.30499643  0.00504593     0.40100
H1778       H  0.82199654  0.27276897  0.00974043     0.35000
C1779       C  0.03466557  0.28911837  0.75314041    -0.26800
C1780       C  0.03435974  0.26219263  0.75665172    -0.14800
C1781       C  0.01028226  0.24981285  0.76114963     0.35800
C1782       C  0.98738953  0.26437326  0.76053720    -0.26200
C1783       C  0.98760912  0.29100174  0.75554553    -0.15500
C1784       C  0.01169469  0.30369214  0.75272839     0.36900
N1785       N  0.01285681  0.33110422  0.74830812    -0.89700
H1786       H  0.05292101  0.29886719  0.75008574     0.18000
H1787       H  0.96907448  0.25459861  0.76315975     0.18000
N1788       N  0.00880179  0.22237752  0.76541956    -0.88700
H1789       H  0.03185965  0.33700494  0.74486508     0.35400
H1790       H  0.00717134  0.34018994  0.76542901     0.40500
H1791       H  0.01278486  0.21332110  0.74780814     0.40100
H1792       H  0.99002563  0.21687349  0.77043686     0.35000
C1793       C  0.85711547  0.33374971  0.84553823    -0.26800
C1794       C  0.86046767  0.31010617  0.85851482    -0.14800
C1795       C  0.87977717  0.29279671  0.84996215     0.35800
C1796       C  0.89444165  0.29896964  0.82798082    -0.26200
C1797       C  0.89079254  0.32228936  0.81470744    -0.15500
C1798       C  0.87223458  0.34010334  0.82373559     0.36900
N1799       N  0.86808538  0.36399909  0.81015426    -0.89700
H1800       H  0.84249402  0.34713735  0.85228119     0.18000
H1801       H  0.90836711  0.28514112  0.82064766     0.18000
N1802       N  0.88344245  0.26833827  0.86266866    -0.88700
H1803       H  0.85386214  0.37498431  0.81939296     0.35400
H1804       H  0.86090748  0.35952071  0.79183323     0.40500
H1805       H  0.89195739  0.27200615  0.88057166     0.40100
H1806       H  0.89666431  0.25694840  0.85247917     0.35000
C1807       C  0.79027090  0.17666242  0.88633821    -0.26800
C1808       C  0.79553990  0.17628174  0.85958221    -0.14800
C1809       C  0.80744189  0.19805423  0.84811337     0.35800
C1810       C  0.81258511  0.21988237  0.86333138    -0.26200
C1811       C  0.80678583  0.22028235  0.88978438    -0.15500
C1812       C  0.79574208  0.19832684  0.90156922     0.36900
N1813       N  0.78939364  0.19741182  0.92862639    -0.89700
H1814       H  0.78142623  0.16009106  0.89560880     0.18000
H1815       H  0.82095380  0.23692636  0.85443818     0.18000
N1816       N  0.81426043  0.19808885  0.82117433    -0.88700
H1817       H  0.76932917  0.19583243  0.93020172     0.35400
H1818       H  0.79463142  0.21438439  0.93812568     0.40500
H1819       H  0.82895643  0.18445817  0.81862726     0.40100
H1820       H  0.82206909  0.21592428  0.81575894     0.35000
C1821       C  0.72381343  0.26059900  0.50881961    -0.26800
C1822       C  0.73795460  0.26530184  0.53146945    -0.14800
C1823       C  0.76439931  0.27142725  0.52936222     0.35800
C1824       C  0.77644351  0.27075983  0.50498712    -0.26200
C1825       C  0.76279237  0.26403207  0.48241057    -0.15500
C1826       C  0.73581564  0.25967017  0.48453097     0.36900
N1827       N  0.72004063  0.25358579  0.46268896    -0.89700
H1828       H  0.70339711  0.25619519  0.51007436     0.18000
H1829       H  0.79694024  0.27473061  0.50388476     0.18000
N1830       N  0.77904626  0.27798558  0.55199117    -0.88700
H1831       H  0.72612714  0.23600419  0.45485892     0.35400
H1832       H  0.72200642  0.26827538  0.44894349     0.40500
H1833       H  0.77146632  0.29520249  0.55936398     0.40100
H1834       H  0.79829693  0.28174835  0.54717647     0.35000
C1835       C  0.82759568  0.40697179  0.71194369    -0.26800
C1836       C  0.80415119  0.39425672  0.71647219    -0.14800
C1837       C  0.80441802  0.36809314  0.72421851     0.35800
C1838       C  0.82792299  0.35525173  0.72769851    -0.26200
C1839       C  0.85147379  0.36801270  0.72390893    -0.15500
C1840       C  0.85132811  0.39420849  0.71577180     0.36900
N1841       N  0.87516021  0.40777558  0.71141587    -0.89700
H1842       H  0.82739023  0.42704422  0.70596050     0.18000
H1843       H  0.82766461  0.33525837  0.73395696     0.18000
N1844       N  0.78076322  0.35430998  0.72829065    -0.88700
H1845       H  0.87161839  0.42692420  0.70600585     0.35400
H1846       H  0.88442469  0.39899226  0.69575139     0.40500
H1847       H  0.78060751  0.34744932  0.74729886     0.40100
H1848       H  0.78056385  0.33836761  0.71589996     0.35000
C1849       C  0.73427064  0.35975387  0.64440263    -0.26800
C1850       C  0.71508012  0.36716467  0.66208440    -0.14800
C1851       C  0.69138909  0.35366011  0.66258557     0.35800
C1852       C  0.68791054  0.33231430  0.64631572    -0.26200
C1853       C  0.70783498  0.32393862  0.62990004    -0.15500
C1854       C  0.73098795  0.33812395  0.62846155     0.36900
N1855       N  0.75123784  0.33013878  0.61117543    -0.89700
H1856       H  0.75226748  0.37041243  0.64363491     0.18000
H1857       H  0.67009045  0.32140157  0.64750437     0.18000
N1858       N  0.67056682  0.36129764  0.67915914    -0.88700
H1859       H  0.76708468  0.34256466  0.61255017     0.35400
H1860       H  0.74422109  0.33186186  0.59232667     0.40500
H1861       H  0.66605681  0.38060643  0.67524307     0.40100
H1862       H  0.67665814  0.35984307  0.69832966     0.35000
C1863       C  0.51321922  0.24697124  0.76357458    -0.26800
C1864       C  0.53637534  0.26031567  0.76858890    -0.14800
C1865       C  0.53543754  0.28743192  0.77131414     0.35800
C1866       C  0.51151000  0.30026301  0.77095189    -0.26200
C1867       C  0.48824780  0.28657116  0.76812082    -0.15500
C1868       C  0.48925577  0.25973608  0.76330781     0.36900
N1869       N  0.46593541  0.24541235  0.75869391    -0.89700
H1870       H  0.51356844  0.22622162  0.76087730     0.18000
H1871       H  0.51112242  0.32093256  0.77426177     0.18000
N1872       N  0.55859042  0.30204439  0.77506009    -0.88700
H1873       H  0.46999517  0.22583304  0.75579882     0.35400
H1874       H  0.45795943  0.25227372  0.74145958     0.40500
H1875       H  0.55698455  0.31193881  0.79259168     0.40100
H1876       H  0.55988346  0.31573383  0.76024339     0.35000
C1877       C  0.62481856  0.22097866  0.69295707    -0.26800
C1878       C  0.63746908  0.22491995  0.71648530    -0.14800
C1879       C  0.66387357  0.23160676  0.71640804     0.35800
C1880       C  0.67686552  0.23527981  0.69288376    -0.26200
C1881       C  0.66397270  0.23245019  0.66923181    -0.15500
C1882       C  0.63774812  0.22463528  0.66930799     0.36900
N1883       N  0.62432702  0.22030342  0.64542339    -0.89700
H1884       H  0.60464454  0.21545299  0.69302892     0.18000
H1885       H  0.69701281  0.24090203  0.69319476     0.18000
N1886       N  0.67769975  0.23423974  0.74020840    -0.88700
H1887       H  0.60515640  0.21500021  0.64889215     0.35400
H1888       H  0.63310440  0.20455604  0.63629383     0.40500
H1889       H  0.68545126  0.25287492  0.74092533     0.40100
H1890       H  0.69301907  0.22107169  0.74005791     0.35000
C1891       C  0.67511521  0.17058969  0.82785259    -0.26800
C1892       C  0.66133579  0.16834659  0.80465515    -0.14800
C1893       C  0.66908375  0.14981727  0.78625100     0.35800
C1894       C  0.69069749  0.13428894  0.79099811    -0.26200
C1895       C  0.70473926  0.13671152  0.81395358    -0.15500
C1896       C  0.69682275  0.15489065  0.83271271     0.36900
N1897       N  0.71154287  0.15818385  0.85599773    -0.89700
H1898       H  0.66916719  0.18485198  0.84197679     0.18000
H1899       H  0.69715130  0.12092642  0.77621240     0.18000
N1900       N  0.65584600  0.14766223  0.76206907    -0.88700
H1901       H  0.70305729  0.17221180  0.86780766     0.35400
H1902       H  0.72971293  0.16530452  0.85079094     0.40500
H1903       H  0.64932821  0.12864171  0.76018324     0.40100
H1904       H  0.66909589  0.15126454  0.74722842     0.35000
C1905       C  0.24388715  0.99735897  0.28112228    -0.26800
C1906       C  0.24289141  0.99754837  0.25404413    -0.14800
C1907       C  0.24398705  0.02183637  0.24112439     0.35800
C1908       C  0.24518374  0.04476355  0.25540225    -0.26200
C1909       C  0.24529833  0.04461156  0.28248874    -0.15500
C1910       C  0.24504586  0.02030387  0.29540339     0.36900
N1911       N  0.24490513  0.01801866  0.32298753    -0.89700
H1912       H  0.24323713  0.97915455  0.29147684     0.18000
H1913       H  0.24536545  0.06298628  0.24505856     0.18000
N1914       N  0.24296908  0.02421199  0.21357082    -0.88700
H1915       H  0.22868776  0.02756669  0.33034465     0.35400
H1916       H  0.26174148  0.02632969  0.33030584     0.40500
H1917       H  0.22597431  0.01569023  0.20689233     0.40100
H1918       H  0.25902985  0.01495566  0.20552747     0.35000
C1919       C  0.48577482  0.76591696  0.24908496    -0.26800
C1920       C  0.48531329  0.79240035  0.25501740    -0.14800
C1921       C  0.50898059  0.80459824  0.26174101     0.35800
C1922       C  0.53213427  0.79053694  0.26087488    -0.26200
C1923       C  0.53256129  0.76440577  0.25368983    -0.15500
C1924       C  0.50881434  0.75193399  0.24824610     0.36900
N1925       N  0.50738198  0.72541897  0.24041963    -0.89700
H1926       H  0.46810439  0.75593711  0.24405919     0.18000
H1927       H  0.55005683  0.80031776  0.26540510     0.18000
N1928       N  0.51044358  0.83120353  0.26918833    -0.88700
H1929       H  0.51396277  0.71371548  0.25548713     0.35400
H1930       H  0.51898100  0.72275494  0.22407886     0.40500
H1931       H  0.49824275  0.83421422  0.28501138     0.40100
H1932       H  0.50463789  0.84277031  0.25369230     0.35000
C1933       C  0.32734016  0.86053079  0.23552143    -0.26800
C1934       C  0.35033059  0.87211748  0.22735437    -0.14800
C1935       C  0.34948990  0.89697970  0.21581866     0.35800
C1936       C  0.32576633  0.90975507  0.21324802    -0.26200
C1937       C  0.30289282  0.89843494  0.22233780    -0.15500
C1938       C  0.30366284  0.87325190  0.23306552     0.36900
N1939       N  0.28032726  0.86040843  0.24104240    -0.89700
H1940       H  0.32785856  0.84146650  0.24420603     0.18000
H1941       H  0.32527377  0.92878784  0.20450322     0.18000
N1942       N  0.37216613  0.90947068  0.20601411    -0.88700
H1943       H  0.28436871  0.84223209  0.24891499     0.35400
H1944       H  0.26927578  0.85714646  0.22448711     0.40500
H1945       H  0.38123987  0.89705256  0.19291513     0.40100
H1946       H  0.38469184  0.91320876  0.22134554     0.35000
C1947       C  0.35731933  0.83717795  0.34806312    -0.26800
C1948       C  0.36066337  0.81351392  0.36094065    -0.14800
C1949       C  0.37963699  0.79597087  0.35207098     0.35800
C1950       C  0.39379494  0.80188101  0.32970801    -0.26200
C1951       C  0.39004063  0.82519519  0.31648690    -0.15500
C1952       C  0.37198679  0.84329636  0.32593435     0.36900
N1953       N  0.36784761  0.86724477  0.31244685    -0.89700
H1954       H  0.34301246  0.85074562  0.35511857     0.18000
H1955       H  0.40742079  0.78790546  0.32209302     0.18000
N1956       N  0.38346959  0.77158635  0.36487699    -0.88700
H1957       H  0.35405553  0.87846201  0.32205139     0.35400
H1958       H  0.36010283  0.86286038  0.29433526     0.40500
H1959       H  0.39236136  0.77535371  0.38257586     0.40100
H1960       H  0.39644690  0.76007596  0.35450740     0.35000
C1961       C  0.23053855  0.83759545  0.13320595    -0.26800
C1962       C  0.20911615  0.82167326  0.13736354    -0.14800
C1963       C  0.19194723  0.82711776  0.15785521     0.35800
C1964       C  0.19675452  0.84841817  0.17403165    -0.26200
C1965       C  0.21814782  0.86447623  0.16977828    -0.15500
C1966       C  0.23518489  0.85905668  0.14906627     0.36900
N1967       N  0.25757345  0.87492193  0.14468568    -0.89700
H1968       H  0.24409763  0.83277641  0.11797113     0.18000
H1969       H  0.18368262  0.85263190  0.18984842     0.18000
N1970       N  0.17051858  0.81020429  0.16295257    -0.88700
H1971       H  0.26797744  0.86839929  0.12862939     0.35400
H1972       H  0.26970708  0.87283712  0.16067159     0.40500
H1973       H  0.15779854  0.81168481  0.14737380     0.40100
H1974       H  0.16033762  0.81632329  0.17930212     0.35000
C1975       C  0.25644558  0.54417477  0.25583391    -0.26800
C1976       C  0.26345736  0.54508852  0.28197399    -0.14800
C1977       C  0.26862921  0.52167125  0.29514975     0.35800
C1978       C  0.26760581  0.49815590  0.28166521    -0.26200
C1979       C  0.26198070  0.49725803  0.25514961    -0.15500
C1980       C  0.25530851  0.52058434  0.24232670     0.36900
N1981       N  0.24800834  0.52048999  0.21554401    -0.89700
H1982       H  0.25210161  0.56203349  0.24578976     0.18000
H1983       H  0.27246497  0.48049647  0.29180403     0.18000
N1984       N  0.27621073  0.52182411  0.32186853    -0.88700
H1985       H  0.24464682  0.53929269  0.20893311     0.35400
H1986       H  0.23038616  0.51074466  0.21418806     0.40500
H1987       H  0.29427508  0.53076713  0.32296510     0.40100
H1988       H  0.27872880  0.50299315  0.32876728     0.35000
C1989       C  0.30961219  0.67801181  0.38306729    -0.26800
C1990       C  0.29850615  0.68018086  0.35832775    -0.14800
C1991       C  0.29238799  0.70484825  0.34855631     0.35800
C1992       C  0.29673640  0.72661480  0.36397964    -0.26200
C1993       C  0.30726346  0.72453848  0.38892244    -0.15500
C1994       C  0.31420337  0.69999394  0.39845397     0.36900
N1995       N  0.32514552  0.69736786  0.42380722    -0.89700
H1996       H  0.31438849  0.65904004  0.39054991     0.18000
H1997       H  0.29176722  0.74549395  0.35638284     0.18000
N1998       N  0.28059159  0.70772042  0.32358478    -0.88700
H1999       H  0.32925826  0.67798272  0.42778447     0.35400
H2000       H  0.31111803  0.70313224  0.43716618     0.40500
H2001       H  0.29464394  0.70349554  0.30969900     0.40100
H2002       H  0.27520510  0.72693184  0.32036656     0.35000
C2003       C  0.00664603  0.74458734  0.27607980    -0.26800
C2004       C  0.02971711  0.75864089  0.27324743    -0.14800
C2005       C  0.02833880  0.78538041  0.26853775     0.35800
C2006       C  0.00426808  0.79777209  0.26830999    -0.26200
C2007       C  0.98118706  0.78410011  0.27299764    -0.15500
C2008       C  0.98241942  0.75694645  0.27599637     0.36900
N2009       N  0.95929505  0.74203507  0.27967972    -0.89700
H2010       H  0.00752617  0.72393768  0.27944671     0.18000
H2011       H  0.00388800  0.81850099  0.26537550     0.18000
N2012       N  0.05132959  0.80013448  0.26415428    -0.88700
H2013       H  0.96370699  0.72250702  0.28243444     0.35400
H2014       H  0.94867174  0.74313417  0.26256238     0.40500
H2015       H  0.05220796  0.81466709  0.27814100     0.40100
H2016       H  0.04981304  0.80899527  0.24605576     0.35000
C2017       C  0.14136245  0.71937720  0.17363970    -0.26800
C2018       C  0.16405479  0.73421536  0.17448429    -0.14800
C2019       C  0.17115005  0.74654176  0.19761008     0.35800
C2020       C  0.15525178  0.74398718  0.21937481    -0.26200
C2021       C  0.13257602  0.72902041  0.21877363    -0.15500
C2022       C  0.12560494  0.71644449  0.19563092     0.36900
N2023       N  0.10253263  0.70108101  0.19438731    -0.89700
H2024       H  0.13588939  0.71014013  0.15568774     0.18000
H2025       H  0.16094166  0.75348599  0.23711086     0.18000
N2026       N  0.19385453  0.76249671  0.19865641    -0.88700
H2027       H  0.10046643  0.69290060  0.17604821     0.35400
H2028       H  0.08681343  0.71349773  0.19699691     0.40500
H2029       H  0.20990134  0.75031699  0.19735593     0.40100
H2030       H  0.19521837  0.77173327  0.21655458     0.35000
C2031       C  0.16090803  0.65363338  0.31840512    -0.26800
C2032       C  0.16269256  0.67853359  0.30754830    -0.14800
C2033       C  0.18705189  0.68840967  0.30057162     0.35800
C2034       C  0.20901894  0.67307397  0.30418546    -0.26200
C2035       C  0.20733630  0.64796068  0.31446482    -0.15500
C2036       C  0.18300387  0.63838274  0.32221521     0.36900
N2037       N  0.18002873  0.61310541  0.33309496    -0.89700
H2038       H  0.14219867  0.64593721  0.32379860     0.18000
H2039       H  0.22768340  0.68071185  0.29853772     0.18000
N2040       N  0.18933362  0.71357028  0.28892540    -0.88700
H2041       H  0.19057356  0.61222606  0.35025675     0.35400
H2042       H  0.18764588  0.59962215  0.32012067     0.40500
H2043       H  0.18007805  0.71290479  0.27100159     0.40100
H2044       H  0.20866973  0.71801013  0.28516677     0.35000
C2045       C  0.27059927  0.99509228  0.74683871    -0.26800
C2046       C  0.26423501  0.99471278  0.77324343    -0.14800
C2047       C  0.25728653  0.01842124  0.78533301     0.35800
C2048       C  0.25752010  0.04139799  0.77108143    -0.26200
C2049       C  0.26468835  0.04175877  0.74497531    -0.15500
C2050       C  0.27111142  0.01811774  0.73272826     0.36900
N2051       N  0.27964596  0.01687495  0.70640977    -0.89700
H2052       H  0.27617912  0.97742576  0.73708656     0.18000
H2053       H  0.25260186  0.05930984  0.78076016     0.18000
N2054       N  0.25054248  0.02021830  0.81212274    -0.88700
H2055       H  0.29562003  0.02900569  0.70412510     0.35400
H2056       H  0.26470639  0.02307855  0.69438187     0.40500
H2057       H  0.26632556  0.01451452  0.82330676     0.40100
H2058       H  0.23472626  0.00821742  0.81578168     0.35000
C2059       C  0.16057601  0.88994418  0.80614358    -0.26800
C2060       C  0.16213207  0.86425545  0.79731227    -0.14800
C2061       C  0.18660345  0.85349638  0.79184359     0.35800
C2062       C  0.20877801  0.86852301  0.79560228    -0.26200
C2063       C  0.20726336  0.89399108  0.80486514    -0.15500
C2064       C  0.18281677  0.90482093  0.81008714     0.36900
N2065       N  0.17990707  0.93104117  0.81842528    -0.89700
H2066       H  0.14190047  0.89856439  0.81003839     0.18000
H2067       H  0.22751631  0.86013930  0.79145267     0.18000
N2068       N  0.18892672  0.82780312  0.78151262    -0.88700
H2069       H  0.18894348  0.94309781  0.80494294     0.35400
H2070       H  0.18905418  0.93318282  0.83626039     0.40500
H2071       H  0.18472462  0.81485899  0.79644859     0.40100
H2072       H  0.20799840  0.82398003  0.77605650     0.35000
C2073       C  0.28079683  0.76091527  0.01139087    -0.26800
C2074       C  0.26581331  0.76121244  0.98875529    -0.14800
C2075       C  0.23868836  0.76301371  0.99104399     0.35800
C2076       C  0.22726371  0.76301465  0.01577639    -0.26200
C2077       C  0.24226495  0.76135219  0.03840266    -0.15500
C2078       C  0.26939076  0.76092331  0.03597758     0.36900
N2079       N  0.28558447  0.76016575  0.05835891    -0.89700
H2080       H  0.30164754  0.75974454  0.01013958     0.18000
H2081       H  0.20641528  0.76362883  0.01728118     0.18000
N2082       N  0.22278643  0.76455375  0.96836847    -0.88700
H2083       H  0.29780960  0.77623041  0.05777798     0.35400
H2084       H  0.29701834  0.74354033  0.05731334     0.40500
H2085       H  0.22708134  0.78199211  0.95908520     0.40100
H2086       H  0.20325120  0.76539266  0.97342368     0.35000
C2087       C  0.30630110  0.84123188  0.89763995    -0.26800
C2088       C  0.29924889  0.81753096  0.88662010    -0.14800
C2089       C  0.29092842  0.81682761  0.86066590     0.35800
C2090       C  0.28893137  0.83968460  0.84650882    -0.26200
C2091       C  0.29482135  0.86350902  0.85772020    -0.15500
C2092       C  0.30387726  0.86431565  0.88343793     0.36900
N2093       N  0.31087225  0.88841499  0.89505073    -0.89700
H2094       H  0.31309229  0.84191110  0.91741233     0.18000
H2095       H  0.28201173  0.83878946  0.82677801     0.18000
N2096       N  0.28480548  0.79279041  0.84839597    -0.88700
H2097       H  0.33020490  0.88723775  0.90069382     0.35400
H2098       H  0.29964412  0.89085596  0.91168141     0.40500
H2099       H  0.29674624  0.79076797  0.83221536     0.40100
H2100       H  0.26569364  0.79371061  0.84199287     0.35000
C2101       C  0.37346484  0.72176644  0.85827952    -0.26800
C2102       C  0.34712262  0.72821979  0.85558657    -0.14800
C2103       C  0.33654644  0.73044766  0.83057881     0.35800
C2104       C  0.35268762  0.72740474  0.80907595    -0.26200
C2105       C  0.37900367  0.72153818  0.81176638    -0.15500
C2106       C  0.38950067  0.71820648  0.83654928     0.36900
N2107       N  0.41636432  0.71198191  0.83956771    -0.89700
H2108       H  0.38165967  0.71982396  0.87742181     0.18000
H2109       H  0.34457661  0.72948495  0.78989259     0.18000
N2110       N  0.30974630  0.73669482  0.82695225    -0.88700
H2111       H  0.42100392  0.71020440  0.85914196     0.35400
H2112       H  0.42708555  0.72755132  0.83242988     0.40500
H2113       H  0.29899722  0.72051426  0.83248720     0.40100
H2114       H  0.30570199  0.73969656  0.80739303     0.35000
C2115       C  0.25418799  0.53949934  0.77395109    -0.26800
C2116       C  0.24802742  0.53928812  0.74762903    -0.14800
C2117       C  0.24440816  0.51528842  0.73505007     0.35800
C2118       C  0.24651191  0.49219221  0.74925970    -0.26200
C2119       C  0.25160298  0.49238693  0.77590431    -0.15500
C2120       C  0.25622133  0.51647751  0.78821623     0.36900
N2121       N  0.26211272  0.51775401  0.81532749    -0.89700
H2122       H  0.25714414  0.55784080  0.78358140     0.18000
H2123       H  0.24288776  0.47398277  0.73962921     0.18000
N2124       N  0.23732325  0.51439034  0.70821609    -0.88700
H2125       H  0.26354730  0.53693132  0.82150449     0.35400
H2126       H  0.28038016  0.50955338  0.81788567     0.40500
H2127       H  0.21890492  0.52249978  0.70654124     0.40100
H2128       H  0.23576881  0.49527853  0.70187161     0.35000
C2129       C  0.33623691  0.66997565  0.70248860    -0.26800
C2130       C  0.34775648  0.67019459  0.72697524    -0.14800
C2131       C  0.33712438  0.65493172  0.74700224     0.35800
C2132       C  0.31503762  0.64022660  0.74230476    -0.26200
C2133       C  0.30350235  0.63985816  0.71781559    -0.15500
C2134       C  0.31419148  0.65482824  0.69764636     0.36900
N2135       N  0.30214419  0.65528332  0.67265925    -0.89700
H2136       H  0.34446797  0.68163749  0.68715212     0.18000
H2137       H  0.30662725  0.62917475  0.75801343     0.18000
N2138       N  0.34778836  0.65472209  0.77253420    -0.88700
H2139       H  0.31251389  0.66712652  0.65997483     0.35400
H2140       H  0.28392600  0.66374269  0.67481775     0.40500
H2141       H  0.34845698  0.67371808  0.77936933     0.40100
H2142       H  0.36657230  0.64742711  0.77166099     0.35000
C2143       C  0.27192195  0.78295511  0.53797185    -0.26800
C2144       C  0.24563624  0.77630849  0.53775703    -0.14800
C2145       C  0.23394329  0.77025549  0.51369356     0.35800
C2146       C  0.24832503  0.77262243  0.49063684    -0.26200
C2147       C  0.27428838  0.78023699  0.49092399    -0.15500
C2148       C  0.28627857  0.78517506  0.51497818     0.36900
N2149       N  0.31272056  0.79359680  0.51599940    -0.89700
H2150       H  0.28115819  0.78762681  0.55612507     0.18000
H2151       H  0.23918234  0.76852550  0.47228660     0.18000
N2152       N  0.20742528  0.76215483  0.51254277    -0.88700
H2153       H  0.31870145  0.79606178  0.53511673     0.35400
H2154       H  0.31368541  0.81181685  0.50728577     0.40500
H2155       H  0.20617754  0.74418205  0.52171104     0.40100
H2156       H  0.20168420  0.75922461  0.49341517     0.35000
C2157       C  0.20765253  0.71963935  0.66435912    -0.26800
C2158       C  0.20485779  0.71781518  0.63745349    -0.14800
C2159       C  0.20454703  0.69334124  0.62571744     0.35800
C2160       C  0.20849552  0.67118697  0.64111201    -0.26200
C2161       C  0.21242501  0.67304790  0.66804193    -0.15500
C2162       C  0.21146695  0.69766771  0.67979291     0.36900
N2163       N  0.21530847  0.70053100  0.70714728    -0.89700
H2164       H  0.20762492  0.73856261  0.67333615     0.18000
H2165       H  0.20892542  0.65239254  0.63192710     0.18000
N2166       N  0.20161485  0.69114854  0.59821174    -0.88700
H2167       H  0.21308492  0.71982748  0.71270730     0.35400
H2168       H  0.23448750  0.69563710  0.71108974     0.40500
H2169       H  0.18298235  0.69736596  0.59360031     0.40100
H2170       H  0.20277584  0.67179927  0.59253108     0.35000
C2171       C  0.11878253  0.79803852  0.69337653    -0.26800
C2172       C  0.12491942  0.81864292  0.70972585    -0.14800
C2173       C  0.14672545  0.83427600  0.70404647     0.35800
C2174       C  0.16211280  0.82833206  0.68251072    -0.26200
C2175       C  0.15621958  0.80738081  0.66641898    -0.15500
C2176       C  0.13411550  0.79224080  0.67175035     0.36900
N2177       N  0.12789906  0.77036272  0.65582631    -0.89700
H2178       H  0.10249788  0.78576099  0.69814030     0.18000
H2179       H  0.17895483  0.84009279  0.67844367     0.18000
N2180       N  0.15471562  0.85536631  0.72026276    -0.88700
H2181       H  0.11098282  0.76140860  0.66229186     0.35400
H2182       H  0.14273518  0.75681401  0.65793689     0.40500
H2183       H  0.14233249  0.85802286  0.73591952     0.40100
H2184       H  0.15370566  0.87228002  0.70924204     0.35000
C2185       C  0.76852398  0.01236475  0.74391635    -0.26800
C2186       C  0.76880451  0.98966435  0.75896918    -0.14800
C2187       C  0.76837963  0.99217596  0.78622304     0.35800
C2188       C  0.76790618  0.01687685  0.79743771    -0.26200
C2189       C  0.76843871  0.03952229  0.78225808    -0.15500
C2190       C  0.76853537  0.03698253  0.75514803     0.36900
N2191       N  0.76887238  0.05929255  0.73874344    -0.89700
H2192       H  0.76903552  0.01119637  0.72302355     0.18000
H2193       H  0.76792717  0.01826733  0.81832057     0.18000
N2194       N  0.76848288  0.97022923  0.80310384    -0.88700
H2195       H  0.75267128  0.05854533  0.72675785     0.35400
H2196       H  0.78534122  0.05830669  0.72706488     0.40500
H2197       H  0.78572473  0.96007074  0.80049273     0.40100
H2198       H  0.75290114  0.95832366  0.79836826     0.35000
C2199       C  0.74756156  0.76653345  0.53582620    -0.26800
C2200       C  0.77432796  0.76242771  0.53636848    -0.14800
C2201       C  0.78760552  0.75924957  0.51254378     0.35800
C2202       C  0.77382531  0.75896994  0.48934267    -0.26200
C2203       C  0.74686329  0.76166885  0.48884555    -0.15500
C2204       C  0.73364379  0.76613465  0.51249883     0.36900
N2205       N  0.70608895  0.76948861  0.51307782    -0.89700
H2206       H  0.73723245  0.76920732  0.55385312     0.18000
H2207       H  0.78440637  0.75584567  0.47153426     0.18000
N2208       N  0.81491499  0.75507204  0.51111230    -0.88700
H2209       H  0.69979100  0.77426527  0.53167635     0.35400
H2210       H  0.69776330  0.75160020  0.50880221     0.40500
H2211       H  0.81961162  0.73857773  0.52179640     0.40100
H2212       H  0.82437916  0.77116947  0.51873643     0.35000
C2213       C  0.82110465  0.82080457  0.66044655    -0.26800
C2214       C  0.80694947  0.81826273  0.63751587    -0.14800
C2215       C  0.78876796  0.83737285  0.63067415     0.35800
C2216       C  0.78456036  0.85813839  0.64744829    -0.26200
C2217       C  0.79792098  0.86026303  0.67099356    -0.15500
C2218       C  0.81672481  0.84161052  0.67726143     0.36900
N2219       N  0.83142512  0.84369881  0.70056458    -0.89700
H2220       H  0.83487738  0.80597523  0.66585965     0.18000
H2221       H  0.77019023  0.87243655  0.64222224     0.18000
N2222       N  0.77390355  0.83610581  0.60725403    -0.88700
H2223       H  0.85097552  0.84449527  0.69556034     0.35400
H2224       H  0.82842700  0.82692449  0.71144226     0.40500
H2225       H  0.77902307  0.82017357  0.59600503     0.40100
H2226       H  0.77849150  0.85242240  0.59623186     0.35000
C2227       C  0.72980636  0.77791436  0.01629885    -0.26800
C2228       C  0.74389826  0.77657649  0.99307075    -0.14800
C2229       C  0.77101538  0.77392832  0.99427428     0.35800
C2230       C  0.78343966  0.77474337  0.01840968    -0.26200
C2231       C  0.76947171  0.77800175  0.04155182    -0.15500
C2232       C  0.74224712  0.77867665  0.04036531     0.36900
N2233       N  0.72704685  0.78066515  0.06342915    -0.89700
H2234       H  0.70895194  0.77948123  0.01585049     0.18000
H2235       H  0.80431193  0.77369152  0.01896416     0.18000
N2236       N  0.78593622  0.77080208  0.97103242    -0.88700
H2237       H  0.71458301  0.76479294  0.06416054     0.35400
H2238       H  0.71581230  0.79741039  0.06215418     0.40500
H2239       H  0.78068344  0.75313113  0.96279818     0.40100
H2240       H  0.80562199  0.76950342  0.97525805     0.35000
C2241       C  0.50707779  0.79220449  0.75694013    -0.26800
C2242       C  0.52997192  0.77753943  0.75551273    -0.14800
C2243       C  0.52810757  0.75030966  0.75498111     0.35800
C2244       C  0.50363978  0.73859824  0.75417342    -0.26200
C2245       C  0.48075345  0.75329243  0.75423109    -0.15500
C2246       C  0.48256484  0.78042559  0.75648602     0.36900
N2247       N  0.45962053  0.79597986  0.75813420    -0.89700
H2248       H  0.50821733  0.81308823  0.75773858     0.18000
H2249       H  0.50254075  0.71773958  0.75284941     0.18000
N2250       N  0.55098496  0.73455872  0.75495895    -0.88700
H2251       H  0.46433016  0.81558630  0.75938000     0.35400
H2252       H  0.45027713  0.79120361  0.77541616     0.40500
H2253       H  0.54623427  0.71494224  0.75401942     0.40100
H2254       H  0.56022473  0.73733080  0.77267351     0.35000
C2255       C  0.65639567  0.79742954  0.81280315    -0.26800
C2256       C  0.63148790  0.80817462  0.81431243    -0.14800
C2257       C  0.62198856  0.81656972  0.83843018     0.35800
C2258       C  0.63748112  0.81346930  0.86054508    -0.26200
C2259       C  0.66247526  0.80292228  0.85885720    -0.15500
C2260       C  0.67203710  0.79486451  0.83468234     0.36900
N2261       N  0.69730449  0.78351212  0.83247174    -0.89700
H2262       H  0.66380624  0.79095929  0.79432597     0.18000
H2263       H  0.63009950  0.81949970  0.87919265     0.18000
N2264       N  0.59647691  0.82728646  0.84060943    -0.88700
H2265       H  0.70151585  0.77900442  0.81323002     0.35400
H2266       H  0.69705431  0.76599789  0.84255176     0.40500
H2267       H  0.59667806  0.84535281  0.83157315     0.40100
H2268       H  0.59187888  0.83076849  0.85997516     0.35000
C2269       C  0.66300121  0.88396156  0.71926751    -0.26800
C2270       C  0.66447432  0.85854702  0.72883826    -0.14800
C2271       C  0.68863560  0.84828276  0.73592203     0.35800
C2272       C  0.71074941  0.86359466  0.73330210    -0.26200
C2273       C  0.70939233  0.88907156  0.72394751    -0.15500
C2274       C  0.68519505  0.89921603  0.71650398     0.36900
N2275       N  0.68241141  0.92502244  0.70687948    -0.89700
H2276       H  0.64445137  0.89202823  0.71391866     0.18000
H2277       H  0.72926434  0.85553544  0.73878264     0.18000
N2278       N  0.69055382  0.82270750  0.74664619    -0.88700
H2279       H  0.69279414  0.92666953  0.68963188     0.35400
H2280       H  0.69014078  0.93781022  0.72043524     0.40500
H2281       H  0.68099150  0.82291329  0.76443162     0.40100
H2282       H  0.70979180  0.81799203  0.75056027     0.35000
C2283       C  0.97915830  0.78299819  0.76763396    -0.26800
C2284       C  0.97862781  0.75743397  0.77670031    -0.14800
C2285       C  0.00208806  0.74540107  0.78379664     0.35800
C2286       C  0.02541032  0.75895210  0.78139509    -0.26200
C2287       C  0.02618567  0.78464077  0.77263472    -0.15500
C2288       C  0.00267417  0.79667953  0.76524512     0.36900
N2289       N  0.00259678  0.82270150  0.75550525    -0.89700
H2290       H  0.96120487  0.79221707  0.76213617     0.18000
H2291       H  0.04307189  0.74950777  0.78739711     0.18000
N2292       N  0.00211368  0.71967155  0.79438974    -0.88700
H2293       H  0.98376175  0.82879492  0.75157584     0.35400
H2294       H  0.01238881  0.82258573  0.73781758     0.40500
H2295       H  0.99236569  0.72033360  0.81209278     0.40100
H2296       H  0.02091253  0.71352769  0.79841402     0.35000
C2297       C  0.89036431  0.71482818  0.69421360    -0.26800
C2298       C  0.87857151  0.72121068  0.71770042    -0.14800
C2299       C  0.85240125  0.72909153  0.71796888     0.35800
C2300       C  0.83915954  0.73203217  0.69460653    -0.26200
C2301       C  0.85132505  0.72715874  0.67092920    -0.15500
C2302       C  0.87715789  0.71790948  0.67083558     0.36900
N2303       N  0.89042983  0.71116406  0.64748543    -0.89700
H2304       H  0.91020723  0.70818134  0.69394704     0.18000
H2305       H  0.81936318  0.73881364  0.69490574     0.18000
N2306       N  0.83927773  0.73394154  0.74201718    -0.88700
H2307       H  0.89312886  0.72777883  0.63633816     0.35400
H2308       H  0.87916825  0.69792676  0.63724337     0.40500
H2309       H  0.83823724  0.71641669  0.75204983     0.40100
H2310       H  0.82024907  0.73985163  0.73879358     0.35000
C2311       C  0.74987229  0.51915090  0.79071545    -0.26800
C2312       C  0.74712164  0.54254035  0.77700063    -0.14800
C2313       C  0.74656961  0.54174341  0.74977461     0.35800
C2314       C  0.74739850  0.51786765  0.73703777    -0.26200
C2315       C  0.74845669  0.49442536  0.75081970    -0.15500
C2316       C  0.75052512  0.49515992  0.77796808     0.36900
N2317       N  0.75288085  0.47162423  0.79255436    -0.89700
H2318       H  0.75070323  0.51941663  0.81161601     0.18000
H2319       H  0.74602512  0.51776141  0.71615142     0.18000
N2320       N  0.74464939  0.56500197  0.73486317    -0.88700
H2321       H  0.75383740  0.47553599  0.81234117     0.35400
H2322       H  0.77047301  0.46308907  0.78748120     0.40500
H2323       H  0.72795555  0.56389734  0.72359935     0.40100
H2324       H  0.76054201  0.56585086  0.72240177     0.35000
C2325       C  0.81909567  0.63570859  0.78980274    -0.26800
C2326       C  0.80635350  0.63687959  0.81367363    -0.14800
C2327       C  0.81596790  0.65304557  0.83333046     0.35800
C2328       C  0.83770284  0.66856466  0.82825966    -0.26200
C2329       C  0.85010592  0.66779303  0.80415241    -0.15500
C2330       C  0.84113464  0.65068801  0.78492619     0.36900
N2331       N  0.85348051  0.64969640  0.76002371    -0.89700
H2332       H  0.81135043  0.62352845  0.77466073     0.18000
H2333       H  0.84475724  0.68155603  0.84300481     0.18000
N2334       N  0.80299544  0.65449062  0.85787650    -0.88700
H2335       H  0.84325031  0.63761730  0.74751563     0.35400
H2336       H  0.87154749  0.64106396  0.76248836     0.40500
H2337       H  0.78472241  0.66247340  0.85474268     0.40100
H2338       H  0.81269060  0.66713296  0.87025557     0.35000
C2339       C  0.69430488  0.71241397  0.87405317    -0.26800
C2340       C  0.70954655  0.71610571  0.89609166    -0.14800
C2341       C  0.72798547  0.69742202  0.90304040     0.35800
C2342       C  0.73099930  0.67533386  0.88754292    -0.26200
C2343       C  0.71657966  0.67210104  0.86475624    -0.15500
C2344       C  0.69768571  0.69062912  0.85819246     0.36900
N2345       N  0.68210524  0.68733783  0.83548584    -0.89700
H2346       H  0.68033873  0.72707786  0.86872285     0.18000
H2347       H  0.74539467  0.66105859  0.89275042     0.18000
N2348       N  0.74355724  0.70099041  0.92571724    -0.88700
H2349       H  0.66938153  0.70287560  0.83328930     0.35400
H2350       H  0.67072401  0.67087982  0.83827609     0.40500
H2351       H  0.75548402  0.71697282  0.92252852     0.40100
H2352       H  0.75579542  0.68514925  0.92844102     0.35000
C2353       C  0.88951307  0.97181158  0.68875445    -0.26800
C2354       C  0.90863481  0.95586764  0.69978333    -0.14800
C2355       C  0.90088405  0.93561098  0.71649949     0.35800
C2356       C  0.87468203  0.93124337  0.72078103    -0.26200
C2357       C  0.85566570  0.94630002  0.70861253    -0.15500
C2358       C  0.86317280  0.96726974  0.69296324     0.36900
N2359       N  0.84414264  0.98377293  0.68126805    -0.89700
H2360       H  0.89500389  0.98764199  0.67619453     0.18000
H2361       H  0.86921099  0.91517819  0.73307889     0.18000
N2362       N  0.91885663  0.91879122  0.72913383    -0.88700
H2363       H  0.85294495  0.99803705  0.66996354     0.35400
H2364       H  0.83444772  0.99339524  0.69616163     0.40500
H2365       H  0.93159035  0.92993486  0.74009911     0.40100
H2366       H  0.92904864  0.90829899  0.71521074     0.35000
C2367       C  0.20140057  0.91116889  0.59614741    -0.26800
C2368       C  0.18772145  0.91917533  0.57423609    -0.14800
C2369       C  0.17953427  0.90031112  0.55620599     0.35800
C2370       C  0.18409507  0.87403694  0.56111514    -0.26200
C2371       C  0.19698068  0.86606775  0.58350902    -0.15500
C2372       C  0.20608617  0.88510213  0.60101938     0.36900
N2373       N  0.21905664  0.87873896  0.62461762    -0.89700
H2374       H  0.20794962  0.92521621  0.61019019     0.18000
H2375       H  0.17725284  0.85978306  0.54741967     0.18000
N2376       N  0.16619528  0.90753113  0.53308395    -0.88700
H2377       H  0.23660587  0.86976022  0.62029475     0.35400
H2378       H  0.20738915  0.86629532  0.63546697     0.40500
H2379       H  0.14821263  0.89836230  0.53310122     0.40100
H2380       H  0.17675816  0.90063450  0.51729272     0.35000
C2381       C  0.07617925  0.97110651  0.65071704    -0.26800
C2382       C  0.05270236  0.97148627  0.63750661    -0.14800
C2383       C  0.05242302  0.97330952  0.61032488     0.35800
C2384       C  0.07577097  0.97612324  0.59691037    -0.26200
C2385       C  0.09938163  0.97703056  0.61012351    -0.15500
C2386       C  0.09952822  0.97397144  0.63731856     0.36900
N2387       N  0.12324316  0.97384297  0.65149981    -0.89700
H2388       H  0.07636903  0.96928636  0.67158067     0.18000
H2389       H  0.07540644  0.97820170  0.57608771     0.18000
N2390       N  0.02839182  0.97219460  0.59648527    -0.88700
H2391       H  0.12449146  0.95635087  0.66155085     0.35400
H2392       H  0.12253226  0.98880597  0.66504400     0.40500
H2393       H  0.02045163  0.95386084  0.59953754     0.40100
H2394       H  0.03154038  0.97389624  0.57659747     0.35000
C2395       C  0.09335501  0.21886252  0.64896926    -0.26800
C2396       C  0.07628012  0.20879156  0.66761863    -0.14800
C2397       C  0.05411754  0.19536399  0.65929227     0.35800
C2398       C  0.05001489  0.19171419  0.63284634    -0.26200
C2399       C  0.06766891  0.20089824  0.61418033    -0.15500
C2400       C  0.08932645  0.21521271  0.62246158     0.36900
N2401       N  0.10748545  0.22560120  0.60414109    -0.89700
H2402       H  0.11040257  0.22929943  0.65508939     0.18000
H2403       H  0.03310297  0.18092352  0.62697767     0.18000
N2404       N  0.03532240  0.18541648  0.67703680    -0.88700
H2405       H  0.12285434  0.23463821  0.61356242     0.35400
H2406       H  0.09797193  0.24005135  0.59370778     0.40500
H2407       H  0.02886696  0.20054443  0.68877662     0.40100
H2408       H  0.04399066  0.17128518  0.68853746     0.35000
C2409       C  0.14562322  0.09017499  0.56227458    -0.26800
C2410       C  0.13267882  0.06696452  0.56702602    -0.14800
C2411       C  0.10556113  0.06685618  0.56948331     0.35800
C2412       C  0.09174546  0.08964239  0.56586377    -0.26200
C2413       C  0.10430894  0.11282712  0.55952468    -0.15500
C2414       C  0.13173802  0.11327931  0.55857241     0.36900
N2415       N  0.14541393  0.13691313  0.55345134    -0.89700
H2416       H  0.16648423  0.09009413  0.56062922     0.18000
H2417       H  0.07088103  0.08888096  0.56717822     0.18000
N2418       N  0.09151297  0.04375519  0.57552943    -0.88700
H2419       H  0.16531975  0.13362200  0.55269042     0.35400
H2420       H  0.14222497  0.14923405  0.56913487     0.40500
H2421       H  0.09859999  0.03629356  0.59290049     0.40100
H2422       H  0.09461392  0.03018826  0.56092104     0.35000
C2423       C  0.93130462  0.81959717  0.40926660    -0.26800
C2424       C  0.94231076  0.84265031  0.41792034    -0.14800
C2425       C  0.95085073  0.86121334  0.39978526     0.35800
C2426       C  0.94796092  0.85632163  0.37327549    -0.26200
C2427       C  0.93650600  0.83339614  0.36444366    -0.15500
C2428       C  0.92866277  0.81449236  0.38278882     0.36900
N2429       N  0.91791554  0.79021449  0.37464920    -0.89700
H2430       H  0.92505782  0.80531594  0.42327891     0.18000
H2431       H  0.95389897  0.87094699  0.35950701     0.18000
N2432       N  0.96159517  0.88535356  0.40834373    -0.88700
H2433       H  0.91245823  0.77899905  0.39056430     0.35400
H2434       H  0.93256030  0.77998270  0.36520232     0.40500
H2435       H  0.94701257  0.89545536  0.41803527     0.40100
H2436       H  0.96703409  0.89678749  0.39258251     0.35000
C2437       C  0.97215851  0.87922635  0.58603556    -0.26800
C2438       C  0.95203319  0.88603021  0.56934331    -0.14800
C2439       C  0.93687776  0.90818204  0.57494343     0.35800
C2440       C  0.94280948  0.92320336  0.59667014    -0.26200
C2441       C  0.96335956  0.91675455  0.61308832    -0.15500
C2442       C  0.97778237  0.89404139  0.60806130     0.36900
N2443       N  0.99899580  0.88679900  0.62441744    -0.89700
H2444       H  0.98408344  0.86264521  0.58137037     0.18000
H2445       H  0.93145205  0.94038725  0.60048394     0.18000
N2446       N  0.91604999  0.91669978  0.55866263    -0.88700
H2447       H  0.00900048  0.87107954  0.61660221     0.35400
H2448       H  0.99119149  0.88024080  0.64186912     0.40500
H2449       H  0.91293613  0.90426422  0.54317047     0.40100
H2450       H  0.92122338  0.93459133  0.55081951     0.35000
C2451       C  0.83283893  0.13839762  0.47017458    -0.26800
C2452       C  0.82342097  0.11936699  0.45309639    -0.14800
C2453       C  0.80805188  0.12726511  0.43192423     0.35800
C2454       C  0.80350079  0.15347239  0.42785439    -0.26200
C2455       C  0.81412793  0.17243805  0.44405747    -0.15500
C2456       C  0.82839348  0.16481686  0.46586725     0.36900
N2457       N  0.83843271  0.18381005  0.48342558    -0.89700
H2458       H  0.84430102  0.13278653  0.48672973     0.18000
H2459       H  0.79235169  0.15903119  0.41104341     0.18000
N2460       N  0.79717276  0.10946219  0.41379133    -0.88700
H2461       H  0.84872068  0.17494681  0.49835777     0.35400
H2462       H  0.82267964  0.19310462  0.49203024     0.40500
H2463       H  0.78553279  0.09627809  0.42373729     0.40100
H2464       H  0.81208772  0.09976077  0.40423242     0.35000
C2465       C  0.88584493  0.92697024  0.47148327    -0.26800
C2466       C  0.91154226  0.92767380  0.48025292    -0.14800
C2467       C  0.92344613  0.95181648  0.48454084     0.35800
C2468       C  0.90927286  0.97454775  0.48037018    -0.26200
C2469       C  0.88351499  0.97382297  0.47194435    -0.15500
C2470       C  0.87178667  0.94977982  0.46696912     0.36900
N2471       N  0.84545917  0.94849430  0.45833972    -0.89700
H2472       H  0.87667676  0.90848830  0.46800674     0.18000
H2473       H  0.91839218  0.99305561  0.48389411     0.18000
N2474       N  0.94961112  0.95326871  0.49365553    -0.88700
H2475       H  0.83927958  0.92929045  0.45734398     0.35400
H2476       H  0.84495255  0.95554193  0.43941735     0.40500
H2477       H  0.95000823  0.94549051  0.51230031     0.40100
H2478       H  0.95553501  0.97250678  0.49531832     0.35000
C2479       C  0.12189197  0.06562581  0.35434642    -0.26800
C2480       C  0.10427438  0.07575610  0.33638340    -0.14800
C2481       C  0.11340395  0.08906073  0.31455325     0.35800
C2482       C  0.13990029  0.09358584  0.31209486    -0.26200
C2483       C  0.15755819  0.08530378  0.33111835    -0.15500
C2484       C  0.14844845  0.07049465  0.35217409     0.36900
N2485       N  0.16583094  0.06103657  0.37162568    -0.89700
H2486       H  0.11478067  0.05511073  0.37101930     0.18000
H2487       H  0.14659806  0.10434681  0.29542524     0.18000
N2488       N  0.09575902  0.09815087  0.29513553    -0.88700
H2489       H  0.15610194  0.04909579  0.38472055     0.35400
H2490       H  0.17217066  0.07697116  0.38226601     0.40500
H2491       H  0.08718667  0.08194710  0.28668366     0.40100
H2492       H  0.10564566  0.10781624  0.28038457     0.35000
C2493       C  0.94590311  0.08857015  0.40000210    -0.26800
C2494       C  0.95446688  0.06790465  0.38464689    -0.14800
C2495       C  0.94072636  0.04441301  0.38471203     0.35800
C2496       C  0.91912613  0.04173387  0.40076067    -0.26200
C2497       C  0.91136734  0.06180814  0.41717873    -0.15500
C2498       C  0.92463599  0.08563437  0.41652521     0.36900
N2499       N  0.91689069  0.10705835  0.43224098    -0.89700
H2500       H  0.95663888  0.10654310  0.40024310     0.18000
H2501       H  0.90874344  0.02354858  0.40108944     0.18000
N2502       N  0.94922963  0.02316224  0.36894882    -0.88700
H2503       H  0.91837363  0.10168285  0.45164073     0.35400
H2504       H  0.89756781  0.11129065  0.42823254     0.40500
H2505       H  0.94749320  0.02881771  0.34963231     0.40100
H2506       H  0.93718470  0.00714600  0.37146909     0.35000
C2507       C  0.05243965  0.13682296  0.42186044    -0.26800
C2508       C  0.04569491  0.11046578  0.42336668    -0.14800
C2509       C  0.04343212  0.09869715  0.44790005     0.35800
C2510       C  0.04728786  0.11363389  0.47015380    -0.26200
C2511       C  0.05333656  0.14003958  0.46861410    -0.15500
C2512       C  0.05649070  0.15169530  0.44423343     0.36900
N2513       N  0.06254425  0.17873122  0.44223542    -0.89700
H2514       H  0.05437230  0.14596559  0.40311766     0.18000
H2515       H  0.04514739  0.10465967  0.48897167     0.18000
N2516       N  0.03647369  0.07189697  0.45028952    -0.88700
H2517       H  0.06271395  0.18457043  0.42289244     0.35400
H2518       H  0.08136871  0.18124768  0.44900039     0.40500
H2519       H  0.01747819  0.06996683  0.44377823     0.40100
H2520       H  0.03642675  0.06616585  0.46966658     0.35000
C2521       C  0.90129792  0.10379278  0.81482466    -0.26800
C2522       C  0.90992513  0.08673450  0.83397011    -0.14800
C2523       C  0.89150721  0.07320340  0.84904442     0.35800
C2524       C  0.86514827  0.07701665  0.84474403    -0.26200
C2525       C  0.85642667  0.09425259  0.82581253    -0.15500
C2526       C  0.87482352  0.10791881  0.81065731     0.36900
N2527       N  0.86677000  0.12637615  0.79149645    -0.89700
H2528       H  0.91527160  0.11430197  0.80329021     0.18000
H2529       H  0.85143142  0.06652392  0.85660856     0.18000
N2530       N  0.89931867  0.05600287  0.86929301    -0.88700
H2531       H  0.88266489  0.13378745  0.78144884     0.35400
H2532       H  0.85845584  0.14199701  0.80125250     0.40500
H2533       H  0.89160151  0.03774293  0.86544925     0.40100
H2534       H  0.89137599  0.06262524  0.88665671     0.35000
C2535       C  0.99387599  0.05162001  0.76075429    -0.26800
C2536       C  0.99918948  0.03859001  0.78400657    -0.14800
C2537       C  0.00630061  0.01222304  0.78293777     0.35800
C2538       C  0.00627155  0.99930809  0.75921059    -0.26200
C2539       C  0.99901402  0.01181645  0.73614396    -0.15500
C2540       C  0.99379097  0.03864468  0.73687561     0.36900
N2541       N  0.98781064  0.05258676  0.71360946    -0.89700
H2542       H  0.98887604  0.07194761  0.76125591     0.18000
H2543       H  0.01104883  0.97892188  0.75912015     0.18000
N2544       N  0.01379614  0.99797637  0.80546020    -0.88700
H2545       H  0.00442121  0.05257946  0.70209414     0.35400
H2546       H  0.98370785  0.07194720  0.71767984     0.40500
H2547       H  0.99801422  0.99650718  0.81795966     0.40100
H2548       H  0.02874136  0.00790586  0.81467018     0.35000
C2549       C  0.17609805  0.13661366  0.96205171    -0.26800
C2550       C  0.19061449  0.11901524  0.94722619    -0.14800
C2551       C  0.20958497  0.12856342  0.93011527     0.35800
C2552       C  0.21290799  0.15546266  0.92770214    -0.26200
C2553       C  0.19770677  0.17294738  0.94204709    -0.15500
C2554       C  0.17938954  0.16322123  0.95962415     0.36900
N2555       N  0.16386866  0.18019994  0.97505116    -0.89700
H2556       H  0.16142178  0.12983448  0.97537399     0.18000
H2557       H  0.22708541  0.16276288  0.91412462     0.18000
N2558       N  0.22519830  0.11112699  0.91515635    -0.88700
H2559       H  0.16710234  0.17581845  0.99449953     0.35400
H2560       H  0.14445877  0.17649081  0.97097218     0.40500
H2561       H  0.23668485  0.10067732  0.92806156     0.40100
H2562       H  0.23785002  0.12137412  0.90317205     0.35000
C2563       C  0.06977347  0.04580999  0.88130105    -0.26800
C2564       C  0.06167233  0.07130325  0.87667148    -0.14800
C2565       C  0.07661894  0.09200696  0.88618335     0.35800
C2566       C  0.09836830  0.08659968  0.90161007    -0.26200
C2567       C  0.10548289  0.06102464  0.90722480    -0.15500
C2568       C  0.09128081  0.04034918  0.89651667     0.36900
N2569       N  0.09746007  0.01361521  0.90122920    -0.89700
H2570       H  0.05855551  0.02976480  0.87389997     0.18000
H2571       H  0.10963961  0.10233472  0.90954203     0.18000
N2572       N  0.06899418  0.11826830  0.88134371    -0.88700
H2573       H  0.08201768  0.00543717  0.91139194     0.35400
H2574       H  0.11365578  0.01140711  0.91291704     0.40500
H2575       H  0.07112646  0.12163641  0.86153607     0.40100
H2576       H  0.08150930  0.13109145  0.89061182     0.35000
C2577       C  0.06413665  0.85536770  0.86693921    -0.26800
C2578       C  0.07509687  0.83178162  0.85936601    -0.14800
C2579       C  0.08121240  0.81311170  0.87854134     0.35800
C2580       C  0.07716529  0.81905587  0.90476530    -0.26200
C2581       C  0.06648818  0.84279652  0.91205917    -0.15500
C2582       C  0.05996239  0.86117439  0.89295613     0.36900
N2583       N  0.04984238  0.88608906  0.90008896    -0.89700
H2584       H  0.05946843  0.86983524  0.85254904     0.18000
H2585       H  0.08192301  0.80498209  0.91952835     0.18000
N2586       N  0.09143091  0.78825864  0.87148483    -0.88700
H2587       H  0.04576683  0.89721121  0.88372316     0.35400
H2588       H  0.06429732  0.89588388  0.91019342     0.40500
H2589       H  0.07696270  0.77841189  0.86145880     0.40100
H2590       H  0.09543766  0.77722266  0.88793134     0.35000
C2591       C  0.12231996  0.92756193  0.95599601    -0.26800
C2592       C  0.09703444  0.93067875  0.96568267    -0.14800
C2593       C  0.08776210  0.95586589  0.97045340     0.35800
C2594       C  0.10411159  0.97693437  0.96696492    -0.26200
C2595       C  0.12974506  0.97386864  0.95852527    -0.15500
C2596       C  0.13872929  0.94900018  0.95207559     0.36900
N2597       N  0.16448332  0.94549951  0.94232760    -0.89700
H2598       H  0.12944158  0.90829012  0.95195183     0.18000
H2599       H  0.09668415  0.99604315  0.97129988     0.18000
N2600       N  0.06231874  0.96068334  0.98018146    -0.88700
H2601       H  0.16794218  0.92599713  0.93834644     0.35400
H2602       H  0.17730566  0.95076317  0.95697353     0.40500
H2603       H  0.05997026  0.95032407  0.99735109     0.40100
H2604       H  0.04887549  0.95426404  0.96661093     0.35000
C2605       C  0.10870906  0.94624837  0.21368213    -0.26800
C2606       C  0.10220921  0.95776742  0.19011035    -0.14800
C2607       C  0.12189491  0.96426090  0.17233557     0.35800
C2608       C  0.14773140  0.96002013  0.17892846    -0.26200
C2609       C  0.15451472  0.94882397  0.20263663    -0.15500
C2610       C  0.13465052  0.94182989  0.22031307     0.36900
N2611       N  0.14068251  0.93029490  0.24486492    -0.89700
H2612       H  0.09351499  0.94118379  0.22719288     0.18000
H2613       H  0.16262405  0.96494949  0.16505587     0.18000
N2614       N  0.11555021  0.97451190  0.14729061    -0.88700
H2615       H  0.12383143  0.92541201  0.25489793     0.35400
H2616       H  0.15001243  0.94432322  0.25596638     0.40500
H2617       H  0.10551918  0.96016390  0.13724851     0.40100
H2618       H  0.13225632  0.97837946  0.13659560     0.35000
C2619       C  0.00919131  0.99762831  0.25925206    -0.26800
C2620       C  0.01472908  0.01228080  0.23695494    -0.14800
C2621       C  0.01840061  0.03917883  0.23957708     0.35800
C2622       C  0.01767058  0.05052716  0.26417627    -0.26200
C2623       C  0.01360290  0.03562757  0.28655809    -0.15500
C2624       C  0.00856822  0.00895572  0.28394378     0.36900
N2625       N  0.00312678  0.99337784  0.30631810    -0.89700
H2626       H  0.00599652  0.97701569  0.25759786     0.18000
H2627       H  0.02141809  0.07106504  0.26576993     0.18000
N2628       N  0.02335951  0.05510501  0.21746768    -0.88700
H2629       H  0.00018775  0.97409574  0.30109019     0.35400
H2630       H  0.98572252  0.99993497  0.31422402     0.40500
H2631       H  0.04114829  0.06425587  0.22011994     0.40100
H2632       H  0.00907424  0.06936441  0.21665585     0.35000
C2633       C  0.03074663  0.94033284  0.07997935    -0.26800
C2634       C  0.04131834  0.93085071  0.10289021    -0.14800
C2635       C  0.05421336  0.90681253  0.10293391     0.35800
C2636       C  0.05647649  0.89280281  0.07971764    -0.26200
C2637       C  0.04552022  0.90213595  0.05673680    -0.15500
C2638       C  0.03238608  0.92616066  0.05706925     0.36900
N2639       N  0.02082514  0.93652021  0.03416225    -0.89700
H2640       H  0.02053449  0.95863539  0.07997423     0.18000
H2641       H  0.06653557  0.87444256  0.07962835     0.18000
N2642       N  0.06505929  0.89686119  0.12646822    -0.88700
H2643       H  0.02864903  0.95484583  0.03084720     0.35400
H2644       H  0.00107169  0.93884656  0.03766722     0.40500
H2645       H  0.07971268  0.90948657  0.13220723     0.40100
H2646       H  0.07378318  0.87892290  0.12323412     0.35000
C2647       C  0.83937064  0.90666028  0.06087570    -0.26800
C2648       C  0.82387894  0.92527122  0.07319994    -0.14800
C2649       C  0.80285006  0.91686182  0.08853948     0.35800
C2650       C  0.79891344  0.89039191  0.09237921    -0.26200
C2651       C  0.81546225  0.87183578  0.08129729    -0.15500
C2652       C  0.83528920  0.88015114  0.06448208     0.36900
N2653       N  0.85149394  0.86178632  0.05134707    -0.89700
H2654       H  0.85523607  0.91276739  0.04864796     0.18000
H2655       H  0.78320395  0.88441255  0.10488106     0.18000
N2656       N  0.78505409  0.93450645  0.10031516    -0.88700
H2657       H  0.86553791  0.87116964  0.04025009     0.35400
H2658       H  0.83984060  0.85164077  0.03837591     0.40500
H2659       H  0.77739398  0.94649739  0.08597904     0.40100
H2660       H  0.79487724  0.94571463  0.11387725     0.35000
C2661       C  0.91085954  0.97607391  0.12850518    -0.26800
C2662       C  0.91193149  0.98898565  0.10462175    -0.14800
C2663       C  0.93535251  0.00043408  0.09665798     0.35800
C2664       C  0.95716013  0.99824827  0.11227719    -0.26200
C2665       C  0.95643131  0.98471097  0.13586233    -0.15500
C2666       C  0.93292094  0.97370181  0.14419771     0.36900
N2667       N  0.93143173  0.96045221  0.16856891    -0.89700
H2668       H  0.89273464  0.96776003  0.13488753     0.18000
H2669       H  0.97502543  0.00685940  0.10555095     0.18000
N2670       N  0.93741399  0.01511748  0.07324580    -0.88700
H2671       H  0.91278162  0.95338545  0.17172454     0.35400
H2672       H  0.93494070  0.97403589  0.18308029     0.40500
H2673       H  0.92365516  0.02990624  0.07365123     0.40100
H2674       H  0.93362014  0.00298402  0.05759492     0.35000
C2675       C  0.91760772  0.20867068  0.11996215    -0.26800
C2676       C  0.94236855  0.20221325  0.11109140    -0.14800
C2677       C  0.96269468  0.19975452  0.12922396     0.35800
C2678       C  0.95757855  0.20241946  0.15569832    -0.26200
C2679       C  0.93268405  0.20814442  0.16447366    -0.15500
C2680       C  0.91257568  0.21167978  0.14632416     0.36900
N2681       N  0.88656397  0.21704883  0.15413839    -0.89700
H2682       H  0.90177298  0.21048581  0.10643608     0.18000
H2683       H  0.97316883  0.20010410  0.16944989     0.18000
N2684       N  0.98860232  0.19462374  0.12092275    -0.88700
H2685       H  0.88606843  0.23493706  0.16344509     0.35400
H2686       H  0.88056533  0.20269614  0.16706351     0.40500
H2687       H  0.99475426  0.17749714  0.12971212     0.40100
H2688       H  0.00038844  0.20963336  0.12748134     0.35000
C2689       C  0.97290774  0.11023130  0.94024048    -0.26800
C2690       C  0.97116436  0.12292381  0.91639132    -0.14800
C2691       C  0.96364555  0.14938476  0.91597509     0.35800
C2692       C  0.95871783  0.16238335  0.93928282    -0.26200
C2693       C  0.96157323  0.14971530  0.96302899    -0.15500
C2694       C  0.96808324  0.12319352  0.96344100     0.36900
N2695       N  0.96959640  0.10940308  0.98755521    -0.89700
H2696       H  0.97833627  0.09001812  0.94089486     0.18000
H2697       H  0.95340839  0.18264043  0.93886178     0.18000
N2698       N  0.96055799  0.16353372  0.89238288    -0.88700
H2699       H  0.97489616  0.09013852  0.98455087     0.35400
H2700       H  0.95106709  0.10908957  0.99560985     0.40500
H2701       H  0.94745536  0.15368669  0.88062403     0.40100
H2702       H  0.97840428  0.16471231  0.88303203     0.35000
C2703       C  0.89271003  0.10835581  0.02656616    -0.26800
C2704       C  0.90759274  0.11706250  0.04742060    -0.14800
C2705       C  0.90609605  0.10429091  0.07141372     0.35800
C2706       C  0.88975270  0.08279019  0.07401755    -0.26200
C2707       C  0.87566378  0.07345002  0.05288512    -0.15500
C2708       C  0.87702300  0.08636978  0.02893284     0.36900
N2709       N  0.86269496  0.07694169  0.00713003    -0.89700
H2710       H  0.89383514  0.11842049  0.00821735     0.18000
H2711       H  0.88896171  0.07251370  0.09226072     0.18000
N2712       N  0.92075805  0.11345454  0.09309215    -0.88700
H2713       H  0.86594660  0.08857774  0.99091449     0.35400
H2714       H  0.84306904  0.07853924  0.01160315     0.40500
H2715       H  0.94027483  0.11035114  0.08898948     0.40100
H2716       H  0.91660535  0.10250514  0.10957643     0.35000
C2717       C  0.67121762  0.87421590  0.95315548    -0.26800
C2718       C  0.69530770  0.86638160  0.94350131    -0.14800
C2719       C  0.71395411  0.88549729  0.93716947     0.35800
C2720       C  0.70767424  0.91182068  0.93993989    -0.26200
C2721       C  0.68353478  0.91938357  0.94945342    -0.15500
C2722       C  0.66504287  0.90039404  0.95598641     0.36900
N2723       N  0.63972218  0.90778454  0.96480498    -0.89700
H2724       H  0.65669676  0.85988000  0.95780073     0.18000
H2725       H  0.72183504  0.92648490  0.93516082     0.18000
N2726       N  0.73916336  0.87826966  0.92801924    -0.88700
H2727       H  0.62849612  0.89150653  0.96894914     0.35400
H2728       H  0.63056184  0.91743114  0.94960613     0.40500
H2729       H  0.74858885  0.86883314  0.94318016     0.40100
H2730       H  0.75018168  0.89464512  0.92369081     0.35000
C2731       C  0.75519474  0.01163544  0.03720135    -0.26800
C2732       C  0.77805584  0.01239032  0.02252947    -0.14800
C2733       C  0.77633625  0.01380351  0.99533454     0.35800
C2734       C  0.75192173  0.01288385  0.98351881    -0.26200
C2735       C  0.72911540  0.01062086  0.99822093    -0.15500
C2736       C  0.73091277  0.01070091  0.02538874     0.36900
N2737       N  0.70820698  0.00952515  0.04118762    -0.89700
H2738       H  0.75607856  0.01078839  0.05809823     0.18000
H2739       H  0.75083846  0.01314743  0.96262509     0.18000
N2740       N  0.79928044  0.01584916  0.97978026    -0.88700
H2741       H  0.70799428  0.02579753  0.05315106     0.35400
H2742       H  0.70951126  0.99312918  0.05292973     0.40500
H2743       H  0.80792927  0.03358779  0.98402818     0.40100
H2744       H  0.79463091  0.01632680  0.96013453     0.35000
C2745       C  0.56766200  0.21875871  0.90426940    -0.26800
C2746       C  0.55915523  0.19412990  0.91141213    -0.14800
C2747       C  0.55443304  0.17539743  0.89215667     0.35800
C2748       C  0.55973771  0.18134693  0.86618680    -0.26200
C2749       C  0.56963773  0.20560051  0.85909666    -0.15500
C2750       C  0.57236001  0.22495167  0.87828499     0.36900
N2751       N  0.58005191  0.25077101  0.87143409    -0.89700
H2752       H  0.57056659  0.23326371  0.91906892     0.18000
H2753       H  0.55727737  0.16653278  0.85163005     0.18000
N2754       N  0.54535857  0.15005957  0.89912945    -0.88700
H2755       H  0.58141549  0.26244107  0.88785261     0.35400
H2756       H  0.56537488  0.25865576  0.86003926     0.40500
H2757       H  0.55983326  0.14110386  0.90998295     0.40100
H2758       H  0.54267282  0.13868468  0.88267140     0.35000
C2759       C  0.60124072  0.06257257  0.97854138    -0.26800
C2760       C  0.62575123  0.06491309  0.96693610    -0.14800
C2761       C  0.63370030  0.08927860  0.95758900     0.35800
C2762       C  0.61729145  0.11060022  0.96046847    -0.26200
C2763       C  0.59282411  0.10815142  0.97210694    -0.15500
C2764       C  0.58463998  0.08380594  0.98108370     0.36900
N2765       N  0.56013570  0.08090637  0.99388391    -0.89700
H2766       H  0.59483120  0.04391828  0.98559068     0.18000
H2767       H  0.62382653  0.12934534  0.95376000     0.18000
N2768       N  0.65853413  0.09321363  0.94603858    -0.88700
H2769       H  0.55801577  0.06214365  0.00110430     0.35400
H2770       H  0.54574538  0.08321639  0.97995358     0.40500
H2771       H  0.65971905  0.08214984  0.92921256     0.40100
H2772       H  0.67267067  0.08694378  0.95900088     0.35000
C2773       C  0.63646939  0.09355734  0.21916885    -0.26800
C2774       C  0.65392358  0.09070370  0.19841932    -0.14800
C2775       C  0.64417286  0.08363701  0.17387519     0.35800
C2776       C  0.61765056  0.08001605  0.17070927    -0.26200
C2777       C  0.60034755  0.08376743  0.19125633    -0.15500
C2778       C  0.60992496  0.09039039  0.21580556     0.36900
N2779       N  0.59329148  0.09348668  0.23774300    -0.89700
H2780       H  0.64340597  0.09876587  0.23819856     0.18000
H2781       H  0.61039432  0.07492892  0.15175038     0.18000
N2782       N  0.66036514  0.08086413  0.15158535    -0.88700
H2783       H  0.58253587  0.07657857  0.24011335     0.35400
H2784       H  0.58064954  0.10884599  0.23420834     0.40500
H2785       H  0.67371197  0.06619307  0.15502771     0.40100
H2786       H  0.67007780  0.09833675  0.14831554     0.35000
C2787       C  0.52696779  0.14112967  0.10396002    -0.26800
C2788       C  0.53847671  0.11664301  0.10703448    -0.14800
C2789       C  0.55450630  0.10689493  0.08712780     0.35800
C2790       C  0.55794653  0.12142121  0.06443193    -0.26200
C2791       C  0.54588843  0.14542788  0.06127079    -0.15500
C2792       C  0.53028758  0.15539693  0.08119301     0.36900
N2793       N  0.51735657  0.17973565  0.07857718    -0.89700
H2794       H  0.51466159  0.14892658  0.11900989     0.18000
H2795       H  0.56963311  0.11372252  0.04882773     0.18000
N2796       N  0.56721951  0.08234972  0.08993962    -0.88700
H2797       H  0.50512403  0.17878089  0.06257015     0.35400
H2798       H  0.53126040  0.19394473  0.07500205     0.40500
H2799       H  0.58056460  0.08411523  0.10495984     0.40100
H2800       H  0.57782093  0.07784560  0.07332834     0.35000
C2801       C  0.39732476  0.95326386  0.80945038    -0.26800
C2802       C  0.40522860  0.96178748  0.83373681    -0.14800
C2803       C  0.38663642  0.96736338  0.85299162     0.35800
C2804       C  0.36043631  0.96323130  0.84774811    -0.26200
C2805       C  0.35248350  0.95363097  0.82374407    -0.15500
C2806       C  0.37110406  0.94968971  0.80396929     0.36900
N2807       N  0.36343956  0.94199414  0.77842238    -0.89700
H2808       H  0.41167899  0.94964531  0.79462048     0.18000
H2809       H  0.34632324  0.96648679  0.86287828     0.18000
N2810       N  0.39447786  0.97623576  0.87811401    -0.88700
H2811       H  0.37954209  0.93955708  0.76644779     0.35400
H2812       H  0.35269226  0.95716889  0.77052766     0.40500
H2813       H  0.40490611  0.96132352  0.88687922     0.40100
H2814       H  0.37840411  0.97969744  0.88987925     0.35000
C2815       C  0.54989917  0.97736433  0.91294634    -0.26800
C2816       C  0.55225686  0.97134162  0.88660517    -0.14800
C2817       C  0.57683787  0.96742604  0.87575516     0.35800
C2818       C  0.59874163  0.97076367  0.89143116    -0.26200
C2819       C  0.59637070  0.97756130  0.91769883    -0.15500
C2820       C  0.57160065  0.98068557  0.92859597     0.36900
N2821       N  0.56848551  0.98823142  0.95516164    -0.89700
H2822       H  0.53086309  0.98010772  0.92126751     0.18000
H2823       H  0.61776684  0.96832977  0.88303857     0.18000
N2824       N  0.57953155  0.96137575  0.84879811    -0.88700
H2825       H  0.54893736  0.98915507  0.96016281     0.35400
H2826       H  0.57570992  0.00700237  0.95700184     0.40500
H2827       H  0.57189416  0.94291119  0.84594419     0.40100
H2828       H  0.59904195  0.96028425  0.84368889     0.35000
C2829       C  0.33852492  0.13877955  0.06076049    -0.26800
C2830       C  0.32480492  0.12041527  0.07551821    -0.14800
C2831       C  0.30670418  0.12910128  0.09393403     0.35800
C2832       C  0.30357643  0.15571252  0.09787143    -0.26200
C2833       C  0.31801022  0.17410562  0.08387158    -0.15500
C2834       C  0.33554969  0.16545824  0.06485642     0.36900
N2835       N  0.35030077  0.18355305  0.04976077    -0.89700
H2836       H  0.35241245  0.13234839  0.04647278     0.18000
H2837       H  0.28998537  0.16204315  0.11248430     0.18000
N2838       N  0.29168150  0.11101260  0.10877353    -0.88700
H2839       H  0.36058102  0.17399932  0.03521743     0.35400
H2840       H  0.36418894  0.19163772  0.06193037     0.40500
H2841       H  0.27939334  0.10142966  0.09596884     0.40100
H2842       H  0.27980236  0.12062763  0.12199468     0.35000
C2843       C  0.25580872  0.02963164  0.03831028    -0.26800
C2844       C  0.27943945  0.03061025  0.02480243    -0.14800
C2845       C  0.27901950  0.02949268  0.99760726     0.35800
C2846       C  0.25534116  0.02852008  0.98455137    -0.26200
C2847       C  0.23165561  0.02896707  0.99794367    -0.15500
C2848       C  0.23198349  0.02887417  0.02525369     0.36900
N2849       N  0.20824269  0.02848388  0.03968921    -0.89700
H2850       H  0.25580491  0.03026287  0.05922553     0.18000
H2851       H  0.25563269  0.02846797  0.96362260     0.18000
N2852       N  0.30254145  0.02967581  0.98301117    -0.88700
H2853       H  0.21188012  0.02901724  0.05954193     0.35400
H2854       H  0.19920722  0.01080669  0.03601701     0.40500
H2855       H  0.30216392  0.04563773  0.97060903     0.40100
H2856       H  0.30308760  0.01295983  0.97169959     0.35000
C2857       C  0.41360535  0.04282780  0.13302760    -0.26800
C2858       C  0.40869703  0.05992610  0.11252296    -0.14800
C2859       C  0.42419059  0.08213519  0.10947638     0.35800
C2860       C  0.44480318  0.08625421  0.12659889    -0.26200
C2861       C  0.45045055  0.06837692  0.14619612    -0.15500
C2862       C  0.43432337  0.04668291  0.14984713     0.36900
N2863       N  0.43855380  0.02806879  0.17008176    -0.89700
H2864       H  0.40149367  0.02595080  0.13572093     0.18000
H2865       H  0.45744768  0.10270557  0.12371547     0.18000
N2866       N  0.41880693  0.10053593  0.08936403    -0.88700
H2867       H  0.42211109  0.02800140  0.18183756     0.35400
H2868       H  0.45380865  0.03348696  0.18204352     0.40500
H2869       H  0.42324137  0.09176759  0.07172743     0.40100
H2870       H  0.43106453  0.11650927  0.09088096     0.35000
C2871       C  0.41978282  0.82409713  0.14767230    -0.26800
C2872       C  0.43529676  0.83812148  0.16509118    -0.14800
C2873       C  0.45479459  0.85439558  0.15509347     0.35800
C2874       C  0.45783051  0.85674043  0.12845259    -0.26200
C2875       C  0.44181542  0.84343306  0.11099688    -0.15500
C2876       C  0.42283078  0.82651510  0.12078065     0.36900
N2877       N  0.40665153  0.81197865  0.10357471    -0.89700
H2878       H  0.40482903  0.81142347  0.15501914     0.18000
H2879       H  0.47266885  0.86974780  0.12144708     0.18000
N2880       N  0.47202404  0.86870771  0.17127791    -0.88700
H2881       H  0.39332736  0.80088744  0.11396776     0.35400
H2882       H  0.41848487  0.79892183  0.09368227     0.40500
H2883       H  0.48124832  0.85589743  0.18388061     0.40100
H2884       H  0.46144529  0.88227458  0.18183313     0.35000
C2885       C  0.46544459  0.93646650  0.94128322    -0.26800
C2886       C  0.46413506  0.92421899  0.91723727    -0.14800
C2887       C  0.45879262  0.89733041  0.91613980     0.35800
C2888       C  0.45578257  0.88328740  0.93929579    -0.26200
C2889       C  0.45817501  0.89563292  0.96320525    -0.15500
C2890       C  0.46254156  0.92249398  0.96412070     0.36900
N2891       N  0.46374710  0.93578029  0.98837813    -0.89700
H2892       H  0.46934981  0.95700302  0.94251590     0.18000
H2893       H  0.45212149  0.86268126  0.93871894     0.18000
N2894       N  0.45646614  0.88439775  0.89168960    -0.88700
H2895       H  0.44938319  0.94998611  0.98855372     0.35400
H2896       H  0.48166502  0.94498584  0.98960224     0.40500
H2897       H  0.44023653  0.89196445  0.88238047     0.40100
H2898       H  0.45292545  0.86468431  0.89437920     0.35000
C2899       C  0.38818281  0.93500231  0.03151567    -0.26800
C2900       C  0.40649373  0.92741090  0.04995951    -0.14800
C2901       C  0.40830315  0.94103800  0.07344313     0.35800
C2902       C  0.39220955  0.96256019  0.07766429    -0.26200
C2903       C  0.37463950  0.97076340  0.05873937    -0.15500
C2904       C  0.37242549  0.95663217  0.03545860     0.36900
N2905       N  0.35436272  0.96349616  0.01552102    -0.89700
H2906       H  0.38646346  0.92431451  0.01359909     0.18000
H2907       H  0.39418646  0.97368183  0.09528340     0.18000
N2908       N  0.42647615  0.93301374  0.09281088    -0.88700
H2909       H  0.36495721  0.96990524  0.99953851     0.35400
H2910       H  0.34219461  0.97856431  0.02114631     0.40500
H2911       H  0.42099563  0.91462011  0.09916314     0.40100
H2912       H  0.42547893  0.94518048  0.10889286     0.35000
C2913       C  0.67126518  0.16545743  0.56890048    -0.26800
C2914       C  0.69472830  0.17393259  0.57948464    -0.14800
C2915       C  0.71417613  0.15540469  0.58494836     0.35800
C2916       C  0.70880971  0.12897328  0.58179332    -0.26200
C2917       C  0.68497079  0.12057526  0.57226265    -0.15500
C2918       C  0.66628369  0.13920217  0.56502252     0.36900
N2919       N  0.64158647  0.13211615  0.55483330    -0.89700
H2920       H  0.65623918  0.17925922  0.56423395     0.18000
H2921       H  0.72337233  0.11478559  0.58678487     0.18000
N2922       N  0.73920942  0.16330667  0.59390619    -0.88700
H2923       H  0.63249770  0.11958680  0.56784350     0.35400
H2924       H  0.64431679  0.12266816  0.53721390     0.40500
H2925       H  0.74807357  0.17350535  0.57886186     0.40100
H2926       H  0.75091741  0.14725365  0.59757151     0.35000
C2927       C  0.76099624  0.02610328  0.49278843    -0.26800
C2928       C  0.78411856  0.02950632  0.50661538    -0.14800
C2929       C  0.78304283  0.03096745  0.53384451     0.35800
C2930       C  0.75889688  0.03076537  0.54633111    -0.26200
C2931       C  0.73571927  0.02893141  0.53232547    -0.15500
C2932       C  0.73691153  0.02567636  0.50525418     0.36900
N2933       N  0.71372637  0.02240007  0.49037584    -0.89700
H2934       H  0.76152698  0.02455556  0.47192909     0.18000
H2935       H  0.75822043  0.03291243  0.56713343     0.18000
N2936       N  0.80631768  0.03313857  0.54875143    -0.88700
H2937       H  0.70544542  0.00480323  0.49587999     0.35400
H2938       H  0.71797859  0.02086403  0.47068376     0.40500
H2939       H  0.81665916  0.01594259  0.54637157     0.40100
H2940       H  0.80207615  0.03459167  0.56845283     0.35000
C2941       C  0.37136803  0.10396962  0.71375823    -0.26800
C2942       C  0.35345011  0.08995913  0.69894342    -0.14800
C2943       C  0.36248982  0.07171330  0.68087668     0.35800
C2944       C  0.38915742  0.06859946  0.67747503    -0.26200
C2945       C  0.40713375  0.08324265  0.69169541    -0.15500
C2946       C  0.39789367  0.10098740  0.71028369     0.36900
N2947       N  0.41471396  0.11630867  0.72596274    -0.89700
H2948       H  0.36479095  0.11806431  0.72777691     0.18000
H2949       H  0.39585684  0.05484449  0.66319544     0.18000
N2950       N  0.34472079  0.05649450  0.66597174    -0.88700
H2951       H  0.42526585  0.12877221  0.71406988     0.35400
H2952       H  0.42728196  0.10403223  0.73590754     0.40500
H2953       H  0.33490891  0.04435235  0.67879262     0.40100
H2954       H  0.35461532  0.04444182  0.65310319     0.35000
C2955       C  0.49850508  0.99484780  0.76366303    -0.26800
C2956       C  0.49668927  0.00910888  0.78675037    -0.14800
C2957       C  0.49722356  0.03630773  0.78544954     0.35800
C2958       C  0.49756644  0.04859618  0.76131389    -0.26200
C2959       C  0.49741535  0.03429655  0.73821832    -0.15500
C2960       C  0.49906444  0.00710306  0.73946361     0.36900
N2961       N  0.50094689  0.99197840  0.71624535    -0.89700
H2962       H  0.49869831  0.97392875  0.76434556     0.18000
H2963       H  0.49689906  0.06951976  0.76076252     0.18000
N2964       N  0.49708748  0.05161743  0.80848254    -0.88700
H2965       H  0.50163661  0.97225002  0.72057688     0.35400
H2966       H  0.51853813  0.99654261  0.70740707     0.40500
H2967       H  0.48094438  0.06374267  0.80794126     0.40100
H2968       H  0.51360018  0.06323080  0.80835248     0.35000
C2969       C  0.55439566  0.05423519  0.61490306    -0.26800
C2970       C  0.55501596  0.06586299  0.63940988    -0.14800
C2971       C  0.57888489  0.07400756  0.64965656     0.35800
C2972       C  0.60152375  0.06984021  0.63543119    -0.26200
C2973       C  0.60077076  0.05818850  0.61090610    -0.15500
C2974       C  0.57691090  0.05025202  0.60056265     0.36900
N2975       N  0.57560324  0.03765023  0.57582886    -0.89700
H2976       H  0.53613345  0.04804618  0.60683384     0.18000
H2977       H  0.61981615  0.07589914  0.64353477     0.18000
N2978       N  0.58085492  0.08584366  0.67456480    -0.88700
H2979       H  0.55649010  0.03347928  0.57092202     0.35400
H2980       H  0.58508164  0.01988410  0.57747024     0.40500
H2981       H  0.57257329  0.07348543  0.68825770     0.40100
H2982       H  0.57055581  0.10320521  0.67431216     0.35000
C2983       C  0.34851117  0.90675330  0.46599961    -0.26800
C2984       C  0.33116028  0.92459475  0.45513952    -0.14800
C2985       C  0.30980844  0.91542308  0.44108826     0.35800
C2986       C  0.30686957  0.88871981  0.43743947    -0.26200
C2987       C  0.32476429  0.87073970  0.44748442    -0.15500
C2988       C  0.34571176  0.88015034  0.46225008     0.36900
N2989       N  0.36469380  0.86345731  0.47345856    -0.89700
H2990       H  0.36497822  0.91355177  0.47693199     0.18000
H2991       H  0.29053695  0.88204750  0.42626310     0.18000
N2992       N  0.29114458  0.93314924  0.43063369    -0.88700
H2993       H  0.37426350  0.85354025  0.45869586     0.35400
H2994       H  0.35541998  0.85030121  0.48568518     0.40500
H2995       H  0.28198210  0.94224544  0.44619210     0.40100
H2996       H  0.27678291  0.92324966  0.42052606     0.35000
C2997       C  0.27982985  0.00955969  0.52987969    -0.26800
C2998       C  0.27996706  0.01282190  0.50294725    -0.14800
C2999       C  0.25615845  0.01673503  0.49003824     0.35800
C3000       C  0.23295714  0.01551915  0.50412817    -0.26200
C3001       C  0.23284988  0.01089738  0.53082845    -0.15500
C3002       C  0.25668405  0.00830276  0.54393177     0.36900
N3003       N  0.25745154  0.00321189  0.57125370    -0.89700
H3004       H  0.29789220  0.00686476  0.54003653     0.18000
H3005       H  0.21477632  0.01786889  0.49408412     0.18000
N3006       N  0.25538852  0.02125721  0.46263927    -0.88700
H3007       H  0.27647728  0.00275171  0.57793725     0.35400
H3008       H  0.24997589  0.98467099  0.57422932     0.40500
H3009       H  0.26362653  0.03939736  0.45925568     0.40100
H3010       H  0.23633749  0.02243638  0.45611735     0.35000
C3011       C  0.45805801  0.19753631  0.39882893    -0.26800
C3012       C  0.43962746  0.20601217  0.41706433    -0.14800
C3013       C  0.41735617  0.21912843  0.40820075     0.35800
C3014       C  0.41377383  0.22258306  0.38172262    -0.26200
C3015       C  0.43164223  0.21293353  0.36369818    -0.15500
C3016       C  0.45430004  0.20081536  0.37231424     0.36900
N3017       N  0.47341680  0.19193510  0.35417971    -0.89700
H3018       H  0.47547293  0.18784243  0.40513803     0.18000
H3019       H  0.39632733  0.23210704  0.37516843     0.18000
N3020       N  0.39775197  0.22864604  0.42527354    -0.88700
H3021       H  0.48882256  0.18309419  0.36374416     0.35400
H3022       H  0.48097666  0.20820303  0.34483938     0.40500
H3023       H  0.40609633  0.24177690  0.43810129     0.40100
H3024       H  0.38987061  0.21312184  0.43553526     0.35000
C3025       C  0.45719114  0.14079584  0.60774319    -0.26800
C3026       C  0.46843263  0.11617687  0.60561336    -0.14800
C3027       C  0.47690461  0.10723065  0.58139826     0.35800
C3028       C  0.47388354  0.12311159  0.55974371    -0.26200
C3029       C  0.46264048  0.14781538  0.56169454    -0.15500
C3030       C  0.45381801  0.15662802  0.58593332     0.36900
N3031       N  0.44214500  0.18169740  0.58853080    -0.89700
H3032       H  0.45083399  0.14759355  0.62650454     0.18000
H3033       H  0.48037144  0.11603226  0.54113440     0.18000
N3034       N  0.48924369  0.08243015  0.57899519    -0.88700
H3035       H  0.43862720  0.18587832  0.60798045     0.35400
H3036       H  0.42402955  0.18087856  0.57972322     0.40500
H3037       H  0.50662862  0.08328656  0.58917805     0.40100
H3038       H  0.49410029  0.07867601  0.55974462     0.35000
C3039       C  0.38575599  0.11416660  0.49537203    -0.26800
C3040       C  0.40515623  0.12025647  0.47733412    -0.14800
C3041       C  0.40815137  0.10483564  0.45508927     0.35800
C3042       C  0.39248966  0.08293645  0.45193225    -0.26200
C3043       C  0.37422394  0.07601951  0.47070313    -0.15500
C3044       C  0.37052008  0.09187691  0.49252268     0.36900
N3045       N  0.35129366  0.08539146  0.51154731    -0.89700
H3046       H  0.38322583  0.12624356  0.51228242     0.18000
H3047       H  0.39539252  0.07048583  0.43534605     0.18000
N3048       N  0.42716187  0.11137661  0.43589998    -0.88700
H3049       H  0.35027792  0.09971605  0.52574559     0.35400
H3050       H  0.35725387  0.06853981  0.52094220     0.40500
H3051       H  0.42183743  0.12912027  0.42781823     0.40100
H3052       H  0.42702846  0.09790832  0.42085781     0.35000
C3053       C  0.62421362  0.97261036  0.34795205    -0.26800
C3054       C  0.60593271  0.95758236  0.33461227    -0.14800
C3055       C  0.61471285  0.93964226  0.31597810     0.35800
C3056       C  0.64124266  0.93690257  0.31161323    -0.26200
C3057       C  0.65943592  0.95146807  0.32558956    -0.15500
C3058       C  0.65070156  0.96995165  0.34356341     0.36900
N3059       N  0.66864831  0.98596792  0.35740748    -0.89700
H3060       H  0.61791115  0.98649579  0.36228210     0.18000
H3061       H  0.64764179  0.92268217  0.29764169     0.18000
N3062       N  0.59740386  0.92402782  0.30114844    -0.88700
H3063       H  0.65902702  0.99809555  0.37035945     0.35400
H3064       H  0.67771325  0.99801564  0.34390119     0.40500
H3065       H  0.58446513  0.93615492  0.29149691     0.40100
H3066       H  0.58719837  0.91189593  0.31367026     0.35000
C3067       C  0.51261850  0.03371753  0.28947732    -0.26800
C3068       C  0.51568738  0.00680158  0.28958375    -0.14800
C3069       C  0.51658303  0.99357905  0.26564344     0.35800
C3070       C  0.51523657  0.00774539  0.24239945    -0.26200
C3071       C  0.51340791  0.03489716  0.24228184    -0.15500
C3072       C  0.51150666  0.04782280  0.26644172     0.36900
N3073       N  0.50922277  0.07531969  0.26856528    -0.89700
H3074       H  0.51164901  0.04413923  0.30760510     0.18000
H3075       H  0.51652921  0.99746775  0.22422300     0.18000
N3076       N  0.51984742  0.96598472  0.26484555    -0.88700
H3077       H  0.49243801  0.08128488  0.25909385     0.35400
H3078       H  0.52541045  0.08396939  0.26014616     0.40500
H3079       H  0.53828805  0.96181293  0.27187342     0.40100
H3080       H  0.51941233  0.95927983  0.24579376     0.35000
C3081       C  0.46150624  0.99545656  0.41606307    -0.26800
C3082       C  0.46054021  0.98171095  0.39263632    -0.14800
C3083       C  0.43665752  0.97212146  0.38387702     0.35800
C3084       C  0.41439038  0.97605723  0.39901573    -0.26200
C3085       C  0.41558431  0.98922502  0.42273546    -0.15500
C3086       C  0.43938032  0.99923008  0.43124894     0.36900
N3087       N  0.44088477  0.01402766  0.45470960    -0.89700
H3088       H  0.47978994  0.00295978  0.42287707     0.18000
H3089       H  0.39598803  0.96873453  0.39232644     0.18000
N3090       N  0.43499419  0.95885369  0.35956555    -0.88700
H3091       H  0.45934484  0.02186173  0.45696032     0.35400
H3092       H  0.43829578  0.00126485  0.47015536     0.40500
H3093       H  0.43973241  0.97210798  0.34504554     0.40100
H3094       H  0.41602559  0.95296463  0.35603469     0.35000
C3095       C  0.57652268  0.81470348  0.62249253    -0.26800
C3096       C  0.57093073  0.83998976  0.61488194    -0.14800
C3097       C  0.56814556  0.85960469  0.63362119     0.35800
C3098       C  0.57099838  0.85346078  0.65977700    -0.26200
C3099       C  0.57698219  0.82823138  0.66760233    -0.15500
C3100       C  0.57926616  0.80846377  0.64874956     0.36900
N3101       N  0.58430961  0.78217740  0.65624255    -0.89700
H3102       H  0.57833839  0.79976204  0.60794473     0.18000
H3103       H  0.56953989  0.86872422  0.67401671     0.18000
N3104       N  0.56326481  0.88589116  0.62591855    -0.88700
H3105       H  0.58576010  0.77024748  0.64001140     0.35400
H3106       H  0.56832994  0.77568700  0.66677908     0.40500
H3107       H  0.57935510  0.89230751  0.61549734     0.40100
H3108       H  0.56166809  0.89792393  0.64205493     0.35000
C3109       C  0.55093090  0.92550589  0.47156894    -0.26800
C3110       C  0.55909804  0.89965452  0.46962041    -0.14800
C3111       C  0.56442154  0.88918108  0.44507096     0.35800
C3112       C  0.55973381  0.90432605  0.42292332    -0.26200
C3113       C  0.55056670  0.92987759  0.42492777    -0.15500
C3114       C  0.54663603  0.94073390  0.44957751     0.36900
N3115       N  0.53733669  0.96679646  0.45224495    -0.89700
H3116       H  0.54732233  0.93375664  0.49047567     0.18000
H3117       H  0.56306470  0.89609572  0.40396664     0.18000
N3118       N  0.57337725  0.86300982  0.44260946    -0.88700
H3119       H  0.53582148  0.97188932  0.47173101     0.35400
H3120       H  0.51862369  0.96742573  0.44472828     0.40500
H3121       H  0.59201725  0.86222989  0.45025620     0.40100
H3122       H  0.57510711  0.85794952  0.42312959     0.35000
C3123       C  0.64938871  0.95024648  0.55347994    -0.26800
C3124       C  0.64133378  0.96820183  0.57195283    -0.14800
C3125       C  0.61867647  0.96347870  0.58636934     0.35800
C3126       C  0.60337336  0.94173693  0.58051822    -0.26200
C3127       C  0.61074654  0.92435341  0.56099697    -0.15500
C3128       C  0.63458662  0.92823186  0.54814767     0.36900
N3129       N  0.64328503  0.91060703  0.52865766    -0.89700
H3130       H  0.66667170  0.95396522  0.54222723     0.18000
H3131       H  0.58546619  0.93859865  0.59091012     0.18000
N3132       N  0.61058005  0.98158801  0.60580669    -0.88700
H3133       H  0.66141100  0.90361398  0.53412985     0.35400
H3134       H  0.64548712  0.92084398  0.51136806     0.40500
H3135       H  0.62446059  0.98139866  0.62043161     0.40100
H3136       H  0.59322668  0.97563580  0.61428253     0.35000
C3137       C  0.30725618  0.41572239  0.58953231    -0.26800
C3138       C  0.32660414  0.42219626  0.57166076    -0.14800
C3139       C  0.33988827  0.40189601  0.55868926     0.35800
C3140       C  0.33453189  0.37623843  0.56492224    -0.26200
C3141       C  0.31625164  0.36984798  0.58383080    -0.15500
C3142       C  0.30191011  0.38988933  0.59568089     0.36900
N3143       N  0.28239870  0.38431729  0.61453618    -0.89700
H3144       H  0.29655938  0.43080297  0.59936825     0.18000
H3145       H  0.34539549  0.36116448  0.55525166     0.18000
N3146       N  0.35959579  0.40637627  0.53974191    -0.88700
H3147       H  0.26497611  0.39218552  0.60806137     0.35400
H3148       H  0.28738894  0.39356977  0.63176238     0.40500
H3149       H  0.37461974  0.41688314  0.54813419     0.40100
H3150       H  0.35169160  0.41660398  0.52423748     0.35000
C3151       C  0.61449669  0.45719405  0.71642551    -0.26800
C3152       C  0.60574008  0.46293965  0.69156214    -0.14800
C3153       C  0.62363612  0.46610050  0.67118848     0.35800
C3154       C  0.65004111  0.46261286  0.67597513    -0.26200
C3155       C  0.65886725  0.45573339  0.70061350    -0.15500
C3156       C  0.64095838  0.45404311  0.72133973     0.36900
N3157       N  0.64962659  0.44897757  0.74723533    -0.89700
H3158       H  0.60064594  0.45530024  0.73203883     0.18000
H3159       H  0.66360225  0.46394825  0.66006634     0.18000
N3160       N  0.61480502  0.47170137  0.64545275    -0.88700
H3161       H  0.63400095  0.44812155  0.76003415     0.35400
H3162       H  0.66091157  0.46469446  0.75297928     0.40500
H3163       H  0.60405949  0.45582612  0.63912833     0.40100
H3164       H  0.63041124  0.47352004  0.63273460     0.35000
C3165       C  0.42972516  0.46056183  0.60509795    -0.26800
C3166       C  0.41211320  0.47993080  0.61211533    -0.14800
C3167       C  0.41638122  0.49418497  0.63506951     0.35800
C3168       C  0.43841963  0.48906412  0.65003034    -0.26200
C3169       C  0.45624653  0.47010839  0.64263004    -0.15500
C3170       C  0.45172011  0.45545241  0.61997959     0.36900
N3171       N  0.46959168  0.43631299  0.61061269    -0.89700
H3172       H  0.42663983  0.44953895  0.58758358     0.18000
H3173       H  0.44233797  0.50069999  0.66697767     0.18000
N3174       N  0.39903852  0.51458675  0.64253083    -0.88700
H3175       H  0.46004784  0.41851672  0.61066215     0.35400
H3176       H  0.48550319  0.43420096  0.62271283     0.40500
H3177       H  0.40035433  0.52913028  0.62854288     0.40100
H3178       H  0.40482470  0.52289112  0.65998789     0.35000
C3179       C  0.55867751  0.34894615  0.39671094    -0.26800
C3180       C  0.57617261  0.33861694  0.41481771    -0.14800
C3181       C  0.59660395  0.32284738  0.40595528     0.35800
C3182       C  0.59949432  0.31863573  0.37927273    -0.26200
C3183       C  0.58242769  0.32974894  0.36129139    -0.15500
C3184       C  0.56149974  0.34465030  0.37018570     0.36900
N3185       N  0.54316927  0.35542305  0.35231863    -0.89700
H3186       H  0.54273770  0.36087769  0.40314246     0.18000
H3187       H  0.61555209  0.30705898  0.37245493     0.18000
N3188       N  0.61453520  0.31149057  0.42383053    -0.88700
H3189       H  0.52917074  0.36628811  0.36202431     0.35400
H3190       H  0.53347174  0.34002612  0.34358593     0.40500
H3191       H  0.60436900  0.29796691  0.43488760     0.40100
H3192       H  0.62887527  0.30119020  0.41399047     0.35000
C3193       C  0.50029213  0.29466613  0.51193521    -0.26800
C3194       C  0.52514184  0.29541949  0.50130989    -0.14800
C3195       C  0.53610555  0.27241667  0.49141549     0.35800
C3196       C  0.52191394  0.24922650  0.49234972    -0.26200
C3197       C  0.49679339  0.24838838  0.50268512    -0.15500
C3198       C  0.48614005  0.27144393  0.51313689     0.36900
N3199       N  0.46093077  0.27140228  0.52480664    -0.89700
H3200       H  0.49195130  0.31230181  0.51954170     0.18000
H3201       H  0.53026593  0.23189585  0.48410172     0.18000
N3202       N  0.56122057  0.27287195  0.47949177    -0.88700
H3203       H  0.45573434  0.28998611  0.53078820     0.35400
H3204       H  0.46200504  0.26010806  0.54153497     0.40500
H3205       H  0.55995848  0.28437322  0.46291855     0.40100
H3206       H  0.56653517  0.25439482  0.47326956     0.35000
C3207       C  0.54431966  0.43795469  0.58268545    -0.26800
C3208       C  0.54851852  0.42644237  0.60681441    -0.14800
C3209       C  0.55798979  0.40072273  0.60777612     0.35800
C3210       C  0.56188300  0.38684466  0.58460100    -0.26200
C3211       C  0.55644534  0.39811366  0.56057904    -0.15500
C3212       C  0.54816653  0.42414329  0.55974167     0.36900
N3213       N  0.54397523  0.43685475  0.53549267    -0.89700
H3214       H  0.53741253  0.45769635  0.58153964     0.18000
H3215       H  0.56869107  0.36705739  0.58531267     0.18000
N3216       N  0.56373618  0.38881723  0.63219813    -0.88700
H3217       H  0.55611829  0.45296771  0.53457620     0.35400
H3218       H  0.52488079  0.44339700  0.53504954     0.40500
H3219       H  0.57899426  0.39909572  0.64047283     0.40100
H3220       H  0.57030376  0.36989394  0.62953874     0.35000
C3221       C  0.68402264  0.66513459  0.46106085    -0.26800
C3222       C  0.69642981  0.67315656  0.43841314    -0.14800
C3223       C  0.70428058  0.65457845  0.42008004     0.35800
C3224       C  0.69959373  0.62842675  0.42465382    -0.26200
C3225       C  0.68707614  0.62014785  0.44723045    -0.15500
C3226       C  0.67953538  0.63879112  0.46592790     0.36900
N3227       N  0.66731899  0.63112737  0.48970174    -0.89700
H3228       H  0.67816406  0.67944783  0.47517463     0.18000
H3229       H  0.70541961  0.61460484  0.41004886     0.18000
N3230       N  0.71621390  0.66221315  0.39625304    -0.88700
H3231       H  0.66211842  0.64729402  0.50064192     0.35400
H3232       H  0.68105164  0.62109373  0.50058093     0.40500
H3233       H  0.70477501  0.65555948  0.38103244     0.40100
H3234       H  0.73419198  0.65309637  0.39499159     0.35000
C3235       C  0.63179760  0.43179025  0.48729613    -0.26800
C3236       C  0.61078288  0.42605177  0.47117509    -0.14800
C3237       C  0.60678096  0.44101458  0.44868172     0.35800
C3238       C  0.62326981  0.46200643  0.44348807    -0.26200
C3239       C  0.64320676  0.46859332  0.46054177    -0.15500
C3240       C  0.64789041  0.45294557  0.48241472     0.36900
N3241       N  0.66874284  0.45790679  0.50002636    -0.89700
H3242       H  0.63540986  0.42008665  0.50429217     0.18000
H3243       H  0.61952751  0.47428066  0.42692436     0.18000
N3244       N  0.58626314  0.43480290  0.43110017    -0.88700
H3245       H  0.66067659  0.46355487  0.51767579     0.35400
H3246       H  0.68052044  0.47298567  0.49364050     0.40500
H3247       H  0.56884512  0.43939703  0.44022713     0.40100
H3248       H  0.58724206  0.44654548  0.41467352     0.35000
C3249       C  0.39970134  0.60772461  0.32411090    -0.26800
C3250       C  0.40792215  0.58318678  0.33222773    -0.14800
C3251       C  0.38900154  0.56356044  0.33620003     0.35800
C3252       C  0.36284241  0.56920458  0.33269579    -0.26200
C3253       C  0.35485314  0.59382955  0.32507059    -0.15500
C3254       C  0.37357476  0.61325567  0.32057409     0.36900
N3255       N  0.36662605  0.63915936  0.31360833    -0.89700
H3256       H  0.41359523  0.62310979  0.32120065     0.18000
H3257       H  0.34861276  0.55418566  0.33596970     0.18000
N3258       N  0.39545708  0.53768957  0.34367172    -0.88700
H3259       H  0.35366353  0.64632468  0.32734845     0.35400
H3260       H  0.35773344  0.63896042  0.29551201     0.40500
H3261       H  0.40335955  0.53786032  0.36221827     0.40100
H3262       H  0.40876872  0.53017763  0.33045559     0.35000
C3263       C  0.55474907  0.55636186  0.41084997    -0.26800
C3264       C  0.55584993  0.56595522  0.38546448    -0.14800
C3265       C  0.57998032  0.57203194  0.37446227     0.35800
C3266       C  0.60257424  0.56779127  0.38902440    -0.26200
C3267       C  0.60135740  0.55792709  0.41440109    -0.15500
C3268       C  0.57710666  0.55242073  0.42536498     0.36900
N3269       N  0.57504714  0.54201776  0.45095086    -0.89700
H3270       H  0.53628353  0.55171939  0.41957020     0.18000
H3271       H  0.62120311  0.57213563  0.38051581     0.18000
N3272       N  0.58151086  0.58185801  0.34852825    -0.88700
H3273       H  0.56561863  0.52419273  0.44982228     0.35400
H3274       H  0.56353512  0.55449688  0.46191031     0.40500
H3275       H  0.57480885  0.56740924  0.33613676     0.40100
H3276       H  0.60072197  0.58537480  0.34338669     0.35000
C3277       C  0.45690233  0.69186085  0.65796480    -0.26800
C3278       C  0.43335527  0.70301594  0.66514306    -0.14800
C3279       C  0.41576568  0.71071500  0.64561256     0.35800
C3280       C  0.42236137  0.70769164  0.61967720    -0.26200
C3281       C  0.44611039  0.69696477  0.61232659    -0.15500
C3282       C  0.46349010  0.68879991  0.63184215     0.36900
N3283       N  0.48778055  0.67720227  0.62540992    -0.89700
H3284       H  0.47044022  0.68574409  0.67269476     0.18000
H3285       H  0.40844593  0.71346019  0.60517002     0.18000
N3286       N  0.39057466  0.72069026  0.65135627    -0.88700
H3287       H  0.48836339  0.65878054  0.63371351     0.35400
H3288       H  0.50244104  0.68829081  0.63371372     0.40500
H3289       H  0.39235485  0.73862771  0.66040091     0.40100
H3290       H  0.38105549  0.70776337  0.66363709     0.35000
C3291       C  0.48168214  0.77153467  0.52282617    -0.26800
C3292       C  0.49613248  0.74841980  0.52313892    -0.14800
C3293       C  0.52327679  0.75013805  0.52217940     0.35800
C3294       C  0.53531637  0.77441681  0.52232960    -0.26200
C3295       C  0.52101733  0.79755497  0.52360937    -0.15500
C3296       C  0.49377237  0.79601790  0.52305515     0.36900
N3297       N  0.47843485  0.81916712  0.52309639    -0.89700
H3298       H  0.46079856  0.77057290  0.52322442     0.18000
H3299       H  0.55622269  0.77496251  0.52240688     0.18000
N3300       N  0.53888645  0.72729292  0.52135417    -0.88700
H3301       H  0.45875873  0.81466059  0.52303066     0.35400
H3302       H  0.48217666  0.82895054  0.50580709     0.40500
H3303       H  0.55116001  0.72747192  0.53736210     0.40100
H3304       H  0.55029942  0.72805757  0.50468524     0.35000
C3305       C  0.47095281  0.62075899  0.46579802    -0.26800
C3306       C  0.46472667  0.64711122  0.46397038    -0.14800
C3307       C  0.46051378  0.65814257  0.43942983     0.35800
C3308       C  0.46310248  0.64271905  0.41730474    -0.26200
C3309       C  0.46948781  0.61629200  0.41915116    -0.15500
C3310       C  0.47343273  0.60523850  0.44376526     0.36900
N3311       N  0.48073787  0.57854435  0.44636107    -0.89700
H3312       H  0.47407991  0.61221024  0.48466078     0.18000
H3313       H  0.46021864  0.65150367  0.39851614     0.18000
N3314       N  0.45454076  0.68499056  0.43635228    -0.88700
H3315       H  0.48236854  0.57339903  0.46582849     0.35400
H3316       H  0.49915974  0.57650509  0.43833043     0.40500
H3317       H  0.46913300  0.69582183  0.44511085     0.40100
H3318       H  0.43712787  0.68881573  0.44582325     0.35000
C3319       C  0.38999867  0.61483855  0.55721488    -0.26800
C3320       C  0.41668455  0.61272868  0.55214163    -0.14800
C3321       C  0.42824762  0.58800661  0.55198065     0.35800
C3322       C  0.41277700  0.56612708  0.55590780    -0.26200
C3323       C  0.38605781  0.56823387  0.56002511    -0.15500
C3324       C  0.37459410  0.59281815  0.56142288     0.36900
N3325       N  0.34730788  0.59530439  0.56584196    -0.89700
H3326       H  0.38104898  0.63375763  0.55771883     0.18000
H3327       H  0.42157042  0.54712038  0.55519287     0.18000
N3328       N  0.45542001  0.58501570  0.54704720    -0.88700
H3329       H  0.34177611  0.61472609  0.56513769     0.35400
H3330       H  0.34356213  0.58901550  0.58467623     0.40500
H3331       H  0.45881326  0.59058441  0.52791995     0.40100
H3332       H  0.46086191  0.56559716  0.54839195     0.35000
C3333       C  0.67057390  0.40580654  0.06194036    -0.26800
C3334       C  0.68530336  0.42322055  0.07664835    -0.14800
C3335       C  0.70373705  0.41351414  0.09412792     0.35800
C3336       C  0.70642648  0.38669533  0.09702967    -0.26200
C3337       C  0.69112758  0.36919333  0.08291103    -0.15500
C3338       C  0.67299002  0.37897996  0.06505719     0.36900
N3339       N  0.65694174  0.36188466  0.05023188    -0.89700
H3340       H  0.65629758  0.41313350  0.04853444     0.18000
H3341       H  0.72041485  0.37949060  0.11079275     0.18000
N3342       N  0.71964285  0.43079825  0.10889563    -0.88700
H3343       H  0.64626377  0.37222506  0.03656494     0.35400
H3344       H  0.64341902  0.35381874  0.06290710     0.40500
H3345       H  0.73155512  0.44070448  0.09590165     0.40100
H3346       H  0.73186664  0.42048511  0.12121535     0.35000
C3347       C  0.56117285  0.69639657  0.15665258    -0.26800
C3348       C  0.57795395  0.71659505  0.16306461    -0.14800
C3349       C  0.58986788  0.73098959  0.14294428     0.35800
C3350       C  0.58520626  0.72426208  0.11714185    -0.26200
C3351       C  0.56887632  0.70369927  0.11079340    -0.15500
C3352       C  0.55655201  0.68972064  0.13101033     0.36900
N3353       N  0.54007480  0.66796015  0.12644974    -0.89700
H3354       H  0.55194588  0.68513731  0.17173443     0.18000
H3355       H  0.59456260  0.73513065  0.10186290     0.18000
N3356       N  0.60733721  0.75182000  0.14856889    -0.88700
H3357       H  0.55021177  0.65411904  0.11576175     0.35400
H3358       H  0.52375471  0.67404500  0.11630992     0.40500
H3359       H  0.59635794  0.76703201  0.15604354     0.40100
H3360       H  0.61590403  0.75886687  0.13165229     0.35000
C3361       C  0.49443524  0.74891919  0.01803967    -0.26800
C3362       C  0.52112001  0.74894128  0.02238703    -0.14800
C3363       C  0.53391172  0.77295037  0.02567070     0.35800
C3364       C  0.51957253  0.79605648  0.02533559    -0.26200
C3365       C  0.49268168  0.79601579  0.02191901    -0.15500
C3366       C  0.48012545  0.77204902  0.01737297     0.36900
N3367       N  0.45281971  0.77102311  0.01256352    -0.89700
H3368       H  0.48461023  0.73066736  0.01519879     0.18000
H3369       H  0.52947042  0.81418806  0.02862384     0.18000
N3370       N  0.56126445  0.77388400  0.03033994    -0.88700
H3371       H  0.44653664  0.75190558  0.01086331     0.35400
H3372       H  0.44958375  0.77968141  0.99459488     0.40500
H3373       H  0.56460585  0.76556067  0.04844497     0.40100
H3374       H  0.56769741  0.79299551  0.03154114     0.35000
C3375       C  0.64488407  0.59122934  0.04668491    -0.26800
C3376       C  0.63614600  0.57310956  0.06469249    -0.14800
C3377       C  0.61241906  0.57732218  0.07751757     0.35800
C3378       C  0.59763074  0.59924176  0.07165255    -0.26200
C3379       C  0.60614438  0.61741577  0.05333522    -0.15500
C3380       C  0.63048783  0.61359921  0.04117836     0.36900
N3381       N  0.64015883  0.63180012  0.02250652    -0.89700
H3382       H  0.66284965  0.58764000  0.03652483     0.18000
H3383       H  0.57925928  0.60194466  0.08133946     0.18000
N3384       N  0.60243508  0.55908268  0.09581433    -0.88700
H3385       H  0.65680821  0.62468649  0.01353604     0.35400
H3386       H  0.64599656  0.64825088  0.03263331     0.40500
H3387       H  0.61592441  0.55692834  0.11065574     0.40100
H3388       H  0.60034307  0.54129302  0.08655363     0.35000
C3389       C  0.38715794  0.47341172  0.18086423    -0.26800
C3390       C  0.40577395  0.45845928  0.19395088    -0.14800
C3391       C  0.39749925  0.44015164  0.21241376     0.35800
C3392       C  0.37101639  0.43731531  0.21726602    -0.26200
C3393       C  0.35240903  0.45180409  0.20372714    -0.15500
C3394       C  0.36063498  0.47025566  0.18545674     0.36900
N3395       N  0.34217729  0.48564467  0.17155062    -0.89700
H3396       H  0.39324604  0.48744450  0.16655629     0.18000
H3397       H  0.36489313  0.42290883  0.23118435     0.18000
N3398       N  0.41578779  0.42444428  0.22620190    -0.88700
H3399       H  0.35146642  0.49790483  0.15842418     0.35400
H3400       H  0.33285865  0.49755827  0.18494523     0.40500
H3401       H  0.42322766  0.41095086  0.21314068     0.40100
H3402       H  0.40655720  0.41367405  0.24061298     0.35000
C3403       C  0.50090320  0.53311404  0.23833152    -0.26800
C3404       C  0.49707328  0.50628356  0.23822490    -0.14800
C3405       C  0.49545743  0.49302256  0.26214199     0.35800
C3406       C  0.49636008  0.50706676  0.28534784    -0.26200
C3407       C  0.49859601  0.53410721  0.28547203    -0.15500
C3408       C  0.50203618  0.54715315  0.26156940     0.36900
N3409       N  0.50589758  0.57465882  0.26073926    -0.89700
H3410       H  0.50267156  0.54329848  0.22011228     0.18000
H3411       H  0.49417435  0.49680666  0.30347215     0.18000
N3412       N  0.49169215  0.46549287  0.26294829    -0.88700
H3413       H  0.50683584  0.58125193  0.24165781     0.35400
H3414       H  0.52397143  0.57842152  0.26886081     0.40500
H3415       H  0.47321751  0.46169226  0.25579245     0.40100
H3416       H  0.49186797  0.45872882  0.28198772     0.35000
C3417       C  0.55112757  0.48508680  0.11080511    -0.26800
C3418       C  0.55214137  0.47515463  0.13605722    -0.14800
C3419       C  0.57610575  0.46786335  0.14656966     0.35800
C3420       C  0.59869708  0.47174626  0.13191732    -0.26200
C3421       C  0.59770196  0.48220203  0.10679843    -0.15500
C3422       C  0.57351795  0.48825921  0.09587770     0.36900
N3423       N  0.57174087  0.49852846  0.07011534    -0.89700
H3424       H  0.53262173  0.49024004  0.10254165     0.18000
H3425       H  0.61723379  0.46682670  0.14025043     0.18000
N3426       N  0.57750752  0.45720902  0.17218392    -0.88700
H3427       H  0.55271675  0.50372917  0.06583251     0.35400
H3428       H  0.57648828  0.48362650  0.05734272     0.40500
H3429       H  0.57153308  0.47154045  0.18510435     0.40100
H3430       H  0.59660206  0.45271113  0.17692329     0.35000
C3431       C  0.45103540  0.31845835  0.90448630    -0.26800
C3432       C  0.45220569  0.34391565  0.91340693    -0.14800
C3433       C  0.45170400  0.36463536  0.89564429     0.35800
C3434       C  0.44891286  0.35955754  0.86939153    -0.26200
C3435       C  0.44655949  0.33414257  0.86036054    -0.15500
C3436       C  0.44864146  0.31328405  0.87797256     0.36900
N3437       N  0.44816513  0.28703109  0.86892206    -0.89700
H3438       H  0.45205915  0.30266325  0.91821830     0.18000
H3439       H  0.44729703  0.37571432  0.85614831     0.18000
N3440       N  0.45261417  0.39107237  0.90385303    -0.88700
H3441       H  0.44983182  0.27410893  0.88437144     0.35400
H3442       H  0.46449475  0.28431243  0.85731835     0.40500
H3443       H  0.47020189  0.39439734  0.91310016     0.40100
H3444       H  0.43760239  0.39428279  0.91700530     0.35000
C3445       C  0.47703921  0.27097993  0.00704663    -0.26800
C3446       C  0.49241748  0.29327641  0.00405061    -0.14800
C3447       C  0.51938432  0.29027991  0.00170957     0.35800
C3448       C  0.53014206  0.26546357  0.00097325    -0.74200
C3449       C  0.51465037  0.24318423  0.00236549    -0.15500
C3450       C  0.48783701  0.24601192  0.00627097     0.36900
N3451       N  0.47162663  0.22365027  0.00916993    -0.89700
H3452       H  0.45633025  0.27291138  0.00922495     0.18000
H3453       H  0.55082474  0.26374534  0.99829082     0.18000
N3454       N  0.53602432  0.31227382  0.99945753    -0.88700
H3455       H  0.45233096  0.22910523  0.01157278     0.35400
H3456       H  0.47708840  0.21430137  0.02622310     0.40500
H3457       H  0.54612626  0.31082391  0.98200473     0.40100
H3458       H  0.54942450  0.31154354  0.01451531     0.35000
C3459       C  0.46289790  0.42158643  0.05875226    -0.26800
C3460       C  0.45622967  0.39539887  0.06111332    -0.14800
C3461       C  0.45094005  0.38504218  0.08571345     0.35800
C3462       C  0.45413261  0.40068612  0.10756048    -0.26200
C3463       C  0.46206960  0.42664673  0.10522668    -0.15500
C3464       C  0.46589641  0.43735118  0.08045547     0.36900
N3465       N  0.47392207  0.46378811  0.07737232    -0.89700
H3466       H  0.46653606  0.42964095  0.03975046     0.18000
H3467       H  0.45085533  0.39237360  0.12651201     0.18000
N3468       N  0.44339889  0.35864043  0.08912186    -0.88700
H3469       H  0.47526162  0.46868057  0.05780507     0.35400
H3470       H  0.49256149  0.46538542  0.08490010     0.40500
H3471       H  0.45760976  0.34682681  0.08094672     0.40100
H3472       H  0.42612077  0.35566434  0.07918356     0.35000
C3473       C  0.30862687  0.62507450  0.93435510    -0.26800
C3474       C  0.32359639  0.61889727  0.95605915    -0.14800
C3475       C  0.33262781  0.63935506  0.97203441     0.35800
C3476       C  0.32710123  0.66492785  0.96550290    -0.26200
C3477       C  0.31286054  0.67099379  0.94338329    -0.15500
C3478       C  0.30327945  0.65064640  0.92777330     0.36900
N3479       N  0.28909928  0.65514176  0.90445295    -0.89700
H3480       H  0.30152362  0.60993728  0.92179252     0.18000
H3481       H  0.33441717  0.68026243  0.97771553     0.18000
N3482       N  0.34788227  0.63516359  0.99470681    -0.88700
H3483       H  0.30005134  0.66692972  0.89223008     0.35400
H3484       H  0.27167338  0.66427399  0.90899899     0.40500
H3485       H  0.36525151  0.62631960  0.98946585     0.40100
H3486       H  0.33759053  0.62341838  0.00754596     0.35000
C3487       C  0.40846856  0.47497289  0.98112460    -0.26800
C3488       C  0.38351692  0.47332681  0.97057929    -0.14800
C3489       C  0.37492131  0.44957055  0.96047890     0.35800
C3490       C  0.39107839  0.42776148  0.96222305    -0.26200
C3491       C  0.41579201  0.42936408  0.97334981    -0.15500
C3492       C  0.42481529  0.45342244  0.98232067     0.36900
N3493       N  0.45004171  0.45575246  0.99362906    -0.89700
H3494       H  0.41545468  0.49335509  0.98827343     0.18000
H3495       H  0.38419836  0.40928416  0.95521980     0.18000
N3496       N  0.34975776  0.44750091  0.94903670    -0.88700
H3497       H  0.45289002  0.47436045  0.00094382     0.35400
H3498       H  0.46357058  0.45343579  0.97879978     0.40500
H3499       H  0.33612995  0.45083050  0.96358630     0.40100
H3500       H  0.34656475  0.42872558  0.94231899     0.35000
C3501       C  0.61994478  0.56283629  0.84058896    -0.26800
C3502       C  0.60223825  0.58138604  0.83136878    -0.14800
C3503       C  0.61192716  0.60295668  0.81753731     0.35800
C3504       C  0.63853743  0.60591482  0.81438804    -0.26200
C3505       C  0.65618297  0.58821569  0.82503096    -0.15500
C3506       C  0.64658665  0.56606361  0.83776566     0.36900
N3507       N  0.66322220  0.54634989  0.84778850    -0.89700
H3508       H  0.61318016  0.54587151  0.85084744     0.18000
H3509       H  0.64546433  0.62291933  0.80428176     0.18000
N3510       N  0.59555353  0.62253960  0.80685805    -0.88700
H3511       H  0.67442792  0.55413916  0.86258302     0.35400
H3512       H  0.67529564  0.53988729  0.83290077     0.40500
H3513       H  0.58554898  0.63169761  0.82185232     0.40100
H3514       H  0.58253782  0.61390648  0.79414403     0.35000
C3515       C  0.50787976  0.54604883  0.76610838    -0.26800
C3516       C  0.51096878  0.53222987  0.78936022    -0.14800
C3517       C  0.51303314  0.50503176  0.78810640     0.35800
C3518       C  0.51382186  0.49259198  0.76396683    -0.26200
C3519       C  0.51268328  0.50665258  0.74069507    -0.15500
C3520       C  0.50872545  0.53359903  0.74198486     0.36900
N3521       N  0.50572914  0.54853607  0.71887818    -0.89700
H3522       H  0.50576560  0.56687541  0.76645529     0.18000
H3523       H  0.51637805  0.47181399  0.76354103     0.18000
N3524       N  0.51482899  0.48987757  0.81120598    -0.88700
H3525       H  0.52015921  0.56265044  0.71853371     0.35400
H3526       H  0.48786344  0.55791393  0.71976324     0.40500
H3527       H  0.53211212  0.47945047  0.81056244     0.40100
H3528       H  0.49957216  0.47665580  0.81130435     0.35000
C3529       C  0.43446903  0.56677851  0.93263777    -0.26800
C3530       C  0.41080424  0.56244366  0.92031834    -0.14800
C3531       C  0.40978293  0.56356818  0.89298290     0.35800
C3532       C  0.43252485  0.56765038  0.87868855    -0.26200
C3533       C  0.45626521  0.57067210  0.89116232    -0.15500
C3534       C  0.45707388  0.57118160  0.91854954     0.36900
N3535       N  0.48039826  0.57598299  0.93283095    -0.89700
H3536       H  0.43564411  0.56642247  0.95353529     0.18000
H3537       H  0.43174796  0.56755288  0.85776471     0.18000
N3538       N  0.38583848  0.56038937  0.87957252    -0.88700
H3539       H  0.47732546  0.59244206  0.94413182     0.35400
H3540       H  0.49576635  0.58062473  0.92070336     0.40500
H3541       H  0.38769479  0.54465783  0.86704618     0.40100
H3542       H  0.38263329  0.57693727  0.86841858     0.35000
C3543       C  0.54548478  0.60606834  0.94326931    -0.26800
C3544       C  0.54714436  0.61785464  0.91895825    -0.14800
C3545       C  0.55429066  0.64426747  0.91732319     0.35800
C3546       C  0.55833626  0.65851876  0.94019255    -0.26200
C3547       C  0.55516991  0.64684188  0.96440979    -0.15500
C3548       C  0.54932652  0.62025587  0.96585091     0.36900
N3549       N  0.54734569  0.60750955  0.99038740    -0.89700
H3550       H  0.54040562  0.58581576  0.94490025     0.18000
H3551       H  0.56319019  0.67885736  0.93914175     0.18000
N3552       N  0.55736665  0.65650336  0.89256799    -0.88700
H3553       H  0.56080253  0.59244972  0.99078690     0.35400
H3554       H  0.52889391  0.59945097  0.99188748     0.40500
H3555       H  0.57285716  0.64752154  0.88321085     0.40100
H3556       H  0.56245747  0.67592881  0.89479531     0.35000
C3557       C  0.05321052  0.68274109  0.39803531    -0.26800
C3558       C  0.06376820  0.69913951  0.41687347    -0.14800
C3559       C  0.07798185  0.72097772  0.40912514     0.35800
C3560       C  0.08212024  0.72534346  0.38269480    -0.26200
C3561       C  0.07242935  0.70832882  0.36376814    -0.15500
C3562       C  0.05742719  0.68690806  0.37180200     0.36900
N3563       N  0.04645232  0.66873259  0.35409759    -0.89700
H3564       H  0.04220467  0.66583746  0.40369419     0.18000
H3565       H  0.09348321  0.74196269  0.37697881     0.18000
N3566       N  0.08823080  0.73855555  0.42798855    -0.88700
H3567       H  0.06130648  0.65930870  0.34417910     0.35400
H3568       H  0.03460496  0.67862939  0.34109572     0.40500
H3569       H  0.07258413  0.74724855  0.43737144     0.40100
H3570       H  0.09855800  0.75343631  0.41902246     0.35000
C3571       C  0.01944359  0.75997433  0.51755393    -0.26800
C3572       C  0.00807961  0.73837216  0.50548670    -0.14800
C3573       C  0.98287150  0.74109296  0.49520075     0.35800
C3574       C  0.97037584  0.76535683  0.49633211    -0.26200
C3575       C  0.98261838  0.78716068  0.50690712    -0.15500
C3576       C  0.00706833  0.78418355  0.51834482     0.36900
N3577       N  0.01931718  0.80581967  0.53066426    -0.89700
H3578       H  0.03847912  0.75820594  0.52598298     0.18000
H3579       H  0.95148779  0.76758039  0.48764721     0.18000
N3580       N  0.97031486  0.71966206  0.48283923    -0.88700
H3581       H  0.03729584  0.80049207  0.53811522     0.35400
H3582       H  0.00786161  0.81112206  0.54645244     0.40500
H3583       H  0.98034323  0.71581312  0.46572187     0.40100
H3584       H  0.95153432  0.72465178  0.47738053     0.35000
C3585       C  0.13904428  0.59249752  0.71942546    -0.26800
C3586       C  0.15699732  0.58178674  0.70196092    -0.14800
C3587       C  0.14804963  0.56540905  0.68211844     0.35800
C3588       C  0.12134280  0.56215544  0.67882830    -0.26200
C3589       C  0.10347695  0.57457827  0.69514692    -0.15500
C3590       C  0.11245682  0.58895199  0.71633260     0.36900
N3591       N  0.09459605  0.60010440  0.73448407    -0.89700
H3592       H  0.14563403  0.60443057  0.73526383     0.18000
H3593       H  0.11445885  0.55052430  0.66287605     0.18000
N3594       N  0.16589527  0.55254032  0.66514261    -0.88700
H3595       H  0.10440437  0.61030119  0.74886120     0.35400
H3596       H  0.08502758  0.58489641  0.74375184     0.40500
H3597       H  0.15602770  0.54165508  0.65132097     0.40100
H3598       H  0.17641205  0.53937718  0.67628704     0.35000
C3599       C  0.05331652  0.63521166  0.60860143    -0.26800
C3600       C  0.04488855  0.60936976  0.60720926    -0.14800
C3601       C  0.03965160  0.59835107  0.58287105     0.35800
C3602       C  0.04176971  0.61375306  0.56072900    -0.26200
C3603       C  0.04942575  0.63975624  0.56217708    -0.15500
C3604       C  0.05572219  0.65052870  0.58629581     0.36900
N3605       N  0.06377465  0.67703804  0.58816760    -0.89700
H3606       H  0.05753400  0.64367869  0.62725528     0.18000
H3607       H  0.03748423  0.60529007  0.54208219     0.18000
N3608       N  0.03120459  0.57197129  0.58068107    -0.88700
H3609       H  0.06781814  0.68185969  0.60734584     0.35400
H3610       H  0.04821384  0.68859457  0.58250591     0.40500
H3611       H  0.04695537  0.56017319  0.58518591     0.40100
H3612       H  0.02630237  0.56761977  0.56159131     0.35000
C3613       C  0.17504973  0.40661646  0.46660184    -0.26800
C3614       C  0.18730625  0.42363064  0.44913278    -0.14800
C3615       C  0.20361536  0.41303483  0.42987173     0.35800
C3616       C  0.20652431  0.38624595  0.42808941    -0.26200
C3617       C  0.19341877  0.36930724  0.44485899    -0.15500
C3618       C  0.17797742  0.37968159  0.46475248     0.36900
N3619       N  0.16534537  0.36294711  0.48301778    -0.89700
H3620       H  0.16272232  0.41427124  0.48168972     0.18000
H3621       H  0.21864886  0.37862551  0.41280007     0.18000
N3622       N  0.21748085  0.42871672  0.41173653    -0.88700
H3623       H  0.15446866  0.37367383  0.49624498     0.35400
H3624       H  0.17972262  0.35358477  0.49365781     0.40500
H3625       H  0.22902748  0.44175021  0.42188978     0.40100
H3626       H  0.20427627  0.43879675  0.40027296     0.35000
C3627       C  0.24017250  0.52260183  0.51696207    -0.26800
C3628       C  0.23919866  0.51312044  0.49165327    -0.14800
C3629       C  0.26239023  0.50511682  0.47955953     0.35800
C3630       C  0.28571283  0.50554766  0.49357542    -0.26200
C3631       C  0.28649056  0.51377889  0.51945675    -0.15500
C3632       C  0.26348834  0.52353087  0.53081294     0.36900
N3633       N  0.26364945  0.53402262  0.55652377    -0.89700
H3634       H  0.22252288  0.52924686  0.52607049     0.18000
H3635       H  0.30314287  0.49829435  0.48453470     0.18000
N3636       N  0.26206503  0.49546972  0.45351827    -0.88700
H3637       H  0.24510674  0.53974632  0.56213691     0.35400
H3638       H  0.27490386  0.55078763  0.55608927     0.40500
H3639       H  0.25149109  0.47826825  0.45353778     0.40100
H3640       H  0.28072397  0.49072000  0.44738662     0.35000
C3641       C  0.12185726  0.58170525  0.44486643    -0.26800
C3642       C  0.14101383  0.57509251  0.46286820    -0.14800
C3643       C  0.14363427  0.59009173  0.48557174     0.35800
C3644       C  0.12636245  0.61044190  0.49022083    -0.26200
C3645       C  0.10613487  0.61598153  0.47306275    -0.15500
C3646       C  0.10429885  0.60195395  0.44977827     0.36900
N3647       N  0.08447736  0.60812600  0.43138505    -0.89700
H3648       H  0.11959509  0.57002462  0.42765125     0.18000
H3649       H  0.12829547  0.62152063  0.50787183     0.18000
N3650       N  0.16346148  0.58518472  0.50435822    -0.88700
H3651       H  0.08567256  0.59590409  0.41535193     0.35400
H3652       H  0.08798658  0.62684804  0.42461974     0.40500
H3653       H  0.17640730  0.57102851  0.49812191     0.40100
H3654       H  0.15450562  0.57829154  0.52112428     0.35000
C3655       C  0.88887600  0.47123257  0.34937864    -0.26800
C3656       C  0.90762250  0.46029653  0.33297339    -0.14800
C3657       C  0.89962824  0.44601688  0.31130841     0.35800
C3658       C  0.87314023  0.44227190  0.30706846    -0.26200
C3659       C  0.85432106  0.45236407  0.32404462    -0.15500
C3660       C  0.86241519  0.46722037  0.34541730     0.36900
N3661       N  0.84400647  0.47788601  0.36331273    -0.89700
H3662       H  0.89488812  0.48220330  0.36613044     0.18000
H3663       H  0.86727017  0.43094802  0.29051313     0.18000
N3664       N  0.91830868  0.43536174  0.29370860    -0.88700
H3665       H  0.85314792  0.48992184  0.37667347     0.35400
H3666       H  0.83637848  0.46251964  0.37401059     0.40500
H3667       H  0.92783609  0.45082533  0.28483785     0.40100
H3668       H  0.90918729  0.42504496  0.27896706     0.35000
C3669       C  0.05386783  0.48769201  0.41528548    -0.26800
C3670       C  0.05434775  0.47646570  0.39052032    -0.14800
C3671       C  0.07840999  0.46947790  0.37964784     0.35800
C3672       C  0.10117615  0.47427132  0.39345995    -0.26200
C3673       C  0.10056671  0.48558398  0.41817076    -0.15500
C3674       C  0.07661183  0.49245724  0.42912707     0.36900
N3675       N  0.07546131  0.50495737  0.45391109    -0.89700
H3676       H  0.03555318  0.49306978  0.42389684     0.18000
H3677       H  0.11951944  0.46902642  0.38482098     0.18000
N3678       N  0.08046794  0.45822272  0.35446590    -0.88700
H3679       H  0.05632223  0.50854961  0.45928582     0.35400
H3680       H  0.08436120  0.52300010  0.45203411     0.40500
H3681       H  0.07159942  0.47055495  0.34115579     0.40100
H3682       H  0.07082342  0.44049252  0.35454197     0.35000
C3683       C  0.95916119  0.35362145  0.62652479    -0.26800
C3684       C  0.94498255  0.33804083  0.60939148    -0.14800
C3685       C  0.92853154  0.31882147  0.61950835     0.35800
C3686       C  0.92541582  0.31677167  0.64638857    -0.26200
C3687       C  0.93862847  0.33323790  0.66353998    -0.15500
C3688       C  0.95635435  0.35131851  0.65341592     0.36900
N3689       N  0.97131884  0.36741915  0.67032681    -0.89700
H3690       H  0.97215498  0.36817632  0.61893283     0.18000
H3691       H  0.91212054  0.30245635  0.65390460     0.18000
N3692       N  0.91498715  0.30151850  0.60257317    -0.88700
H3693       H  0.98302627  0.38002450  0.65971472     0.35400
H3694       H  0.98378074  0.35534693  0.68066469     0.40500
H3695       H  0.90337444  0.28878729  0.61314172     0.40100
H3696       H  0.92881918  0.29018076  0.59318075     0.35000
C3697       C  0.01381915  0.28671135  0.51339554    -0.26800
C3698       C  0.98764386  0.28713590  0.52028325    -0.14800
C3699       C  0.97523461  0.26363382  0.52674387     0.35800
C3700       C  0.98957965  0.24054502  0.52716639    -0.26200
C3701       C  0.01614218  0.24027735  0.52156221    -0.15500
C3702       C  0.02814485  0.26363621  0.51362031     0.36900
N3703       N  0.05495375  0.26414250  0.50635988    -0.89700
H3704       H  0.02328625  0.30462133  0.50808353     0.18000
H3705       H  0.98009767  0.22283313  0.53305081     0.18000
N3706       N  0.94843993  0.26335659  0.53407413    -0.88700
H3707       H  0.06091246  0.28296635  0.50204802     0.35400
H3708       H  0.05681035  0.25356275  0.48925831     0.40500
H3709       H  0.94677369  0.27337320  0.55152492     0.40100
H3710       H  0.94220034  0.24449320  0.53774697     0.35000
C3711       C  0.97351509  0.38052579  0.44218494    -0.26800
C3712       C  0.95330187  0.38632584  0.45918500    -0.14800
C3713       C  0.93810775  0.40875309  0.45486769     0.35800
C3714       C  0.94415338  0.42510721  0.43409587    -0.26200
C3715       C  0.96482888  0.41964518  0.41746207    -0.15500
C3716       C  0.97949697  0.39688460  0.42137946     0.36900
N3717       N  0.00116878  0.39102930  0.40496974    -0.89700
H3718       H  0.98553965  0.36379804  0.44598110     0.18000
H3719       H  0.93272531  0.44240608  0.43111982     0.18000
N3720       N  0.91745712  0.41644479  0.47184109    -0.88700
H3721       H  0.00970650  0.37352225  0.41034785     0.35400
H3722       H  0.01507435  0.40537229  0.40787589     0.40500
H3723       H  0.91449798  0.40317028  0.48668862     0.40100
H3724       H  0.90044487  0.41665716  0.46101585     0.35000
C3725       C  0.80817008  0.62540706  0.58457016    -0.26800
C3726       C  0.83090072  0.61904736  0.57131656    -0.14800
C3727       C  0.84725013  0.63900067  0.56243440     0.35800
C3728       C  0.84084695  0.66470272  0.56723053    -0.26200
C3729       C  0.81855094  0.67127270  0.58112525    -0.15500
C3730       C  0.80158049  0.65133564  0.58935068     0.36900
N3731       N  0.77799811  0.65726914  0.60279969    -0.89700
H3732       H  0.79544702  0.61010859  0.59110109     0.18000
H3733       H  0.85407202  0.67955809  0.56067747     0.18000
N3734       N  0.87103762  0.63334090  0.54941236    -0.88700
H3735       H  0.76841099  0.64034301  0.60828985     0.35400
H3736       H  0.76585254  0.66672333  0.58973911     0.40500
H3737       H  0.87062448  0.64229245  0.53129880     0.40100
H3738       H  0.88613037  0.64149086  0.56002035     0.35000
C3739       C  0.76470764  0.52695009  0.52973035    -0.26800
C3740       C  0.78735387  0.53339527  0.51596789    -0.14800
C3741       C  0.78532524  0.53880962  0.48923001     0.35800
C3742       C  0.76092820  0.53790605  0.47724125    -0.26200
C3743       C  0.73832037  0.53244892  0.49134296    -0.15500
C3744       C  0.74036405  0.52649065  0.51783004     0.36900
N3745       N  0.71773946  0.52003118  0.53263603    -0.89700
H3746       H  0.76579309  0.52264238  0.55017496     0.18000
H3747       H  0.75944858  0.54262848  0.45690106     0.18000
N3748       N  0.80775701  0.54563801  0.47431941    -0.88700
H3749       H  0.72250674  0.51650005  0.55194018     0.35400
H3750       H  0.71042025  0.50271308  0.52529871     0.40500
H3751       H  0.81358388  0.56402643  0.48027115     0.40100
H3752       H  0.80309359  0.54737596  0.45474886     0.35000
C3753       C  0.87311959  0.44924479  0.55792168    -0.26800
C3754       C  0.88535870  0.47211625  0.55005995    -0.14800
C3755       C  0.91093015  0.47096443  0.54054296     0.35800
C3756       C  0.92360388  0.44718451  0.53883956    -0.26200
C3757       C  0.91131221  0.42425700  0.54625675    -0.15500
C3758       C  0.88578846  0.42524256  0.55599842     0.36900
N3759       N  0.87293407  0.40198810  0.56411958    -0.89700
H3760       H  0.85359383  0.45008679  0.56542165     0.18000
H3761       H  0.94309959  0.44666339  0.53119744     0.18000
N3762       N  0.92441970  0.49398043  0.53308152    -0.88700
H3763       H  0.85423025  0.40606817  0.57056671     0.35400
H3764       H  0.88300486  0.39464355  0.58000109     0.40500
H3765       H  0.93006427  0.49204001  0.51377043     0.40100
H3766       H  0.94109182  0.49542988  0.54433364     0.35000
C3767       C  0.95181009  0.58444720  0.62223005    -0.26800
C3768       C  0.95457378  0.56864143  0.64410864    -0.14800
C3769       C  0.93662670  0.54861054  0.64861675     0.35800
C3770       C  0.91669537  0.54456015  0.63088890    -0.26200
C3771       C  0.91443954  0.55961799  0.60836212    -0.15500
C3772       C  0.93198323  0.58009056  0.60419337     0.36900
N3773       N  0.92979255  0.59619874  0.58166773    -0.89700
H3774       H  0.96603297  0.59936516  0.61849235     0.18000
H3775       H  0.90318562  0.52897533  0.63450680     0.18000
N3776       N  0.93809191  0.53194952  0.67082911    -0.88700
H3777       H  0.94447092  0.61006291  0.58133356     0.35400
H3778       H  0.91238797  0.60632039  0.58315207     0.40500
H3779       H  0.95268014  0.53761165  0.68349290     0.40100
H3780       H  0.94267581  0.51338529  0.66430459     0.35000
C3781       C  0.92002882  0.70699889  0.90898910    -0.26800
C3782       C  0.94496348  0.70019532  0.91693178    -0.14800
C3783       C  0.96461495  0.69674907  0.89809485     0.35800
C3784       C  0.95845987  0.69901524  0.87177194    -0.26200
C3785       C  0.93342768  0.70541121  0.86406038    -0.15500
C3786       C  0.91400420  0.70948923  0.88280069     0.36900
N3787       N  0.88798917  0.71537703  0.87509796    -0.89700
H3788       H  0.90484002  0.70945713  0.92319887     0.18000
H3789       H  0.97333027  0.69636729  0.85725035     0.18000
N3790       N  0.99070967  0.69111097  0.90565593    -0.88700
H3791       H  0.87607303  0.71790214  0.89122903     0.35400
H3792       H  0.88091901  0.69929104  0.86520095     0.40500
H3793       H  0.99768970  0.70721411  0.91562865     0.40100
H3794       H  0.00255549  0.68882727  0.88943644     0.35000
C3795       C  0.97788216  0.77120601  0.00344332    -0.26800
C3796       C  0.99295777  0.74862648  0.00506959    -0.14800
C3797       C  0.02002392  0.75105677  0.00719311     0.35800
C3798       C  0.03133970  0.77578707  0.00631094    -0.26200
C3799       C  0.01631270  0.79829769  0.00326665    -0.15500
C3800       C  0.98921441  0.79581533  0.00239782     0.36900
N3801       N  0.97301133  0.81812850  0.00004970    -0.89700
H3802       H  0.95706831  0.76982162  0.00194007     0.18000
H3803       H  0.05216878  0.77733205  0.00719844     0.18000
N3804       N  0.03599410  0.72848998  0.00989751    -0.88700
H3805       H  0.96036431  0.81840865  0.01581704     0.35400
H3806       H  0.96202170  0.81617507  0.98324519     0.40500
H3807       H  0.03144086  0.71991682  0.02763017     0.40100
H3808       H  0.05549438  0.73361248  0.01079233     0.35000
C3809       C  0.89977450  0.59457008  0.21681111    -0.26800
C3810       C  0.90720148  0.57975686  0.19546844    -0.14800
C3811       C  0.88799501  0.56849117  0.17963046     0.35800
C3812       C  0.86188662  0.57372706  0.18470714    -0.26200
C3813       C  0.85449003  0.58956169  0.20541973    -0.15500
C3814       C  0.87376474  0.59945260  0.22205362     0.36900
N3815       N  0.86726308  0.61515718  0.24390486    -0.89700
H3816       H  0.91430312  0.60289831  0.22933212     0.18000
H3817       H  0.84728952  0.56581049  0.17202711     0.18000
N3818       N  0.89493949  0.55283956  0.15774347    -0.88700
H3819       H  0.87634723  0.63307389  0.24173562     0.35400
H3820       H  0.87466504  0.60628317  0.26046717     0.40500
H3821       H  0.87859669  0.54800785  0.14695992     0.40100
H3822       H  0.90221219  0.53539457  0.16487667     0.35000
C3823       C  0.98906196  0.53832874  0.29135977    -0.26800
C3824       C  0.99887617  0.51307610  0.29276970    -0.14800
C3825       C  0.01017292  0.50203665  0.27029775     0.35800
C3826       C  0.00898403  0.51543910  0.24666758    -0.26200
C3827       C  0.99780268  0.54001394  0.24511321    -0.15500
C3828       C  0.98848997  0.55184223  0.26785553     0.36900
N3829       N  0.97703500  0.57703284  0.26694130    -0.89700
H3830       H  0.98059971  0.54727077  0.30829676     0.18000
H3831       H  0.01667645  0.50659257  0.22931253     0.18000
N3832       N  0.02243834  0.47711917  0.27133735    -0.88700
H3833       H  0.98711991  0.58898713  0.27967662     0.35400
H3834       H  0.95799360  0.57555998  0.27352875     0.40500
H3835       H  0.03862744  0.47885290  0.28324004     0.40100
H3836       H  0.02929825  0.47171313  0.25311262     0.35000
C3837       C  0.95857483  0.64087522  0.11035586    -0.26800
C3838       C  0.96657880  0.61490148  0.10833761    -0.14800
C3839       C  0.97077374  0.60416825  0.08363506     0.35800
C3840       C  0.96780485  0.61988477  0.06174180    -0.26200
C3841       C  0.96074707  0.64603564  0.06389145    -0.15500
C3842       C  0.95544867  0.65642262  0.08844919     0.36900
N3843       N  0.94788898  0.68283082  0.09180916    -0.89700
H3844       H  0.95504885  0.64933426  0.12917840     0.18000
H3845       H  0.97138374  0.61173590  0.04278122     0.18000
N3846       N  0.97881118  0.57771488  0.08079553    -0.88700
H3847       H  0.93040887  0.68578995  0.08221629     0.35400
H3848       H  0.96195583  0.69465059  0.08339355     0.40500
H3849       H  0.99738639  0.57611952  0.08849863     0.40100
H3850       H  0.98031751  0.57276394  0.06126756     0.35000
C3851       C  0.19589886  0.62800142  0.10671898    -0.26800
C3852       C  0.19045559  0.61892926  0.08184434    -0.14800
C3853       C  0.18945904  0.63665444  0.06093199     0.35800
C3854       C  0.19255984  0.66315037  0.06572735    -0.26200
C3855       C  0.19739351  0.67209741  0.09070323    -0.15500
C3856       C  0.19930072  0.65429610  0.11137009     0.36900
N3857       N  0.20325953  0.66245950  0.13751653    -0.89700
H3858       H  0.19641563  0.61473097  0.12292434     0.18000
H3859       H  0.19143664  0.67686453  0.04992378     0.18000
N3860       N  0.18518052  0.62776833  0.03497308    -0.88700
H3861       H  0.18892224  0.67584043  0.14239750     0.35400
H3862       H  0.22130734  0.67131751  0.13892612     0.40500
H3863       H  0.20104714  0.61641380  0.02972065     0.40100
H3864       H  0.18468356  0.64330212  0.02204704     0.35000
C3865       C  0.25547566  0.53135761  0.04671532    -0.26800
C3866       C  0.23236867  0.52989632  0.03250939    -0.14800
C3867       C  0.23377571  0.52731551  0.00541721     0.35800
C3868       C  0.25808194  0.52717729  0.99319149    -0.26200
C3869       C  0.28117979  0.52975459  0.00732006    -0.15500
C3870       C  0.27966902  0.53151795  0.03447046     0.36900
N3871       N  0.30253559  0.53393007  0.04978815    -0.89700
H3872       H  0.25485657  0.53340193  0.06754037     0.18000
H3873       H  0.25884712  0.52580870  0.97232910     0.18000
N3874       N  0.21061045  0.52514906  0.99033955    -0.88700
H3875       H  0.30296090  0.51858013  0.06292978     0.35400
H3876       H  0.30126082  0.55113181  0.06030275     0.40500
H3877       H  0.20167398  0.50776110  0.99543665     0.40100
H3878       H  0.21500289  0.52385125  0.97065587     0.35000
C3879       C  0.07209226  0.54911355  0.15217049    -0.26800
C3880       C  0.05762146  0.57152925  0.14785643    -0.14800
C3881       C  0.06583380  0.58962022  0.12919027     0.35800
C3882       C  0.08824176  0.58448246  0.11464660    -0.26200
C3883       C  0.10250492  0.56176156  0.11866771    -0.15500
C3884       C  0.09468285  0.54416574  0.13808801     0.36900
N3885       N  0.10881650  0.52063069  0.14246904    -0.89700
H3886       H  0.06533526  0.53509544  0.16622091     0.18000
H3887       H  0.09440341  0.59802259  0.09988780     0.18000
N3888       N  0.05081404  0.61248321  0.12431493    -0.88700
H3889       H  0.09900869  0.50874737  0.15556323     0.35400
H3890       H  0.12615388  0.52558294  0.15147530     0.40500
H3891       H  0.03302034  0.60665732  0.11680387     0.40100
H3892       H  0.05961695  0.62384154  0.11009461     0.35000
C3893       C  0.83577234  0.37237513  0.96929252    -0.26800
C3894       C  0.82452754  0.36667118  0.94543705    -0.14800
C3895       C  0.81675104  0.38695719  0.92890670     0.35800
C3896       C  0.82073410  0.41256404  0.93653561    -0.26200
C3897       C  0.83261083  0.41846044  0.96014212    -0.15500
C3898       C  0.83963543  0.39804637  0.97705202     0.36900
N3899       N  0.85079238  0.40327913  0.00191287    -0.89700
H3900       H  0.84132008  0.35671276  0.98204898     0.18000
H3901       H  0.81530797  0.42796956  0.92344149     0.18000
N3902       N  0.80563661  0.38153276  0.90404006    -0.88700
H3903       H  0.85549546  0.38609229  0.01145711     0.35400
H3904       H  0.83662320  0.41231905  0.01313308     0.40500
H3905       H  0.81983220  0.37254014  0.89281253     0.40100
H3906       H  0.80072368  0.39863200  0.89444825     0.35000
C3907       C  0.76625017  0.51650590  0.99951438    -0.26800
C3908       C  0.78748838  0.50713379  0.01378219    -0.14800
C3909       C  0.78345824  0.50065066  0.04013940     0.35800
C3910       C  0.75875906  0.50308566  0.05104804    -0.26200
C3911       C  0.73747208  0.51130513  0.03635102    -0.15500
C3912       C  0.74142122  0.51853459  0.01039816     0.36900
N3913       N  0.72019611  0.52775410  0.99509062    -0.89700
H3914       H  0.76878403  0.52185302  0.97943801     0.18000
H3915       H  0.75598462  0.49728238  0.07098937     0.18000
N3916       N  0.80366423  0.49088425  0.05627414    -0.88700
H3917       H  0.72626266  0.53203515  0.97628246     0.35400
H3918       H  0.71390463  0.54514242  0.00321548     0.40500
H3919       H  0.81855563  0.50449118  0.05693887     0.40100
H3920       H  0.81055548  0.47360061  0.04843294     0.35000
C3921       C  0.87630854  0.58761614  0.96973136    -0.26800
C3922       C  0.88698954  0.56554437  0.98137175    -0.14800
C3923       C  0.91138392  0.56741540  0.99346858     0.35800
C3924       C  0.92490297  0.59076455  0.99280981    -0.26200
C3925       C  0.91429665  0.61271403  0.98117582    -0.15500
C3926       C  0.88954483  0.61135928  0.96990465     0.36900
N3927       N  0.87805814  0.63398159  0.95859406    -0.89700
H3928       H  0.85755063  0.58636998  0.96060082     0.18000
H3929       H  0.94357955  0.59190745  0.00215988     0.18000
N3930       N  0.92273558  0.54568614  0.00634636    -0.88700
H3931       H  0.85971101  0.62974109  0.95136566     0.35400
H3932       H  0.88943773  0.63939175  0.94278417     0.40500
H3933       H  0.92545202  0.55066358  0.02572232     0.40100
H3934       H  0.94095892  0.54239693  0.99829755     0.35000
C3935       C  0.05223860  0.34976651  0.13302246    -0.26800
C3936       C  0.06801990  0.33763870  0.11447212    -0.14800
C3937       C  0.08712709  0.32009402  0.12274717     0.35800
C3938       C  0.09106680  0.31648640  0.14932799    -0.26200
C3939       C  0.07622187  0.32980898  0.16790758    -0.15500
C3940       C  0.05612740  0.34618769  0.15940751     0.36900
N3941       N  0.03925465  0.35948503  0.17687375    -0.89700
H3942       H  0.03713059  0.36298585  0.12711204     0.18000
H3943       H  0.10627101  0.30350896  0.15549621     0.18000
N3944       N  0.10261232  0.30620306  0.10431417    -0.88700
H3945       H  0.05000644  0.37274689  0.18763949     0.35400
H3946       H  0.03068591  0.34600042  0.18921134     0.40500
H3947       H  0.09031570  0.29379782  0.09420611     0.40100
H3948       H  0.11608885  0.29445341  0.11368068     0.35000
C3949       C  0.98137492  0.27081344  0.01793597    -0.26800
C3950       C  0.99483375  0.24784394  0.02375014    -0.14800
C3951       C  0.02162217  0.24926314  0.02849110     0.35800
C3952       C  0.03405712  0.27330915  0.02824238    -0.26200
C3953       C  0.02034648  0.29630069  0.02374159    -0.15500
C3954       C  0.99380868  0.29497972  0.01792312     0.36900
N3955       N  0.97953871  0.31812714  0.01223846    -0.89700
H3956       H  0.96086336  0.27009637  0.01399939     0.18000
H3957       H  0.05446190  0.27402203  0.03277490     0.18000
N3958       N  0.03630238  0.22651259  0.03422962    -0.88700
H3959       H  0.96017382  0.31382851  0.00857847     0.35400
H3960       H  0.98708197  0.32589111  0.99515644     0.40500
H3961       H  0.04470078  0.22886181  0.05242839     0.40100
H3962       H  0.05114566  0.22499390  0.02059715     0.35000
C3963       C  0.08997418  0.45182248  0.05773187    -0.26800
C3964       C  0.10219676  0.42772522  0.05931796    -0.14800
C3965       C  0.12886319  0.42662169  0.06543416     0.35800
C3966       C  0.14270825  0.44973895  0.06921608    -0.26200
C3967       C  0.13052852  0.47372984  0.06651367    -0.15500
C3968       C  0.10387645  0.47470570  0.06106531     0.36900
N3969       N  0.09077559  0.49902912  0.05902004    -0.89700
H3970       H  0.06961677  0.45302665  0.05308618     0.18000
H3971       H  0.16315678  0.44906798  0.07352891     0.18000
N3972       N  0.14182421  0.40214800  0.06762932    -0.88700
H3973       H  0.07590739  0.49935998  0.07270998     0.35400
H3974       H  0.08245037  0.50017270  0.04066928     0.40500
H3975       H  0.13382231  0.39240849  0.08343625     0.40100
H3976       H  0.16139272  0.40479497  0.07176956     0.35000
C3977       C  0.15440410  0.46514530  0.85075540    -0.26800
C3978       C  0.16199854  0.45497026  0.82681722    -0.14800
C3979       C  0.14306761  0.45092988  0.80745663     0.35800
C3980       C  0.11690742  0.45526678  0.81326759    -0.26200
C3981       C  0.10940727  0.46438448  0.83757280    -0.15500
C3982       C  0.12834797  0.46975134  0.85641318     0.36900
N3983       N  0.12096878  0.47875246  0.88166703    -0.89700
H3984       H  0.16869539  0.46838201  0.86564839     0.18000
H3985       H  0.10230013  0.45161939  0.79876623     0.18000
N3986       N  0.15034074  0.44229240  0.78206824    -0.88700
H3987       H  0.13723043  0.48196600  0.89315024     0.35400
H3988       H  0.11045420  0.46398828  0.89062636     0.40500
H3989       H  0.16139777  0.45694485  0.77359757     0.40100
H3990       H  0.13407088  0.43995003  0.77038652     0.35000
C3991       C  0.01230479  0.53604210  0.79172535    -0.26800
C3992       C  0.01624677  0.50923564  0.79247614    -0.14800
C3993       C  0.01761644  0.49545598  0.76897329     0.35800
C3994       C  0.01581286  0.50866417  0.74547215    -0.26200
C3995       C  0.01326508  0.53566259  0.74450965    -0.15500
C3996       C  0.01092024  0.54940671  0.76820968     0.36900
N3997       N  0.00797499  0.57690614  0.76932759    -0.89700
H3998       H  0.01106343  0.54688938  0.80958535     0.18000
H3999       H  0.01759363  0.49758972  0.72780500     0.18000
N4000       N  0.02224440  0.46815146  0.76867402    -0.88700
H4001       H  0.99138045  0.58213515  0.75912448     0.35400
H4002       H  0.02419162  0.58562362  0.76103011     0.40500
H4003       H  0.03938684  0.46474626  0.75852145     0.40100
H4004       H  0.00716115  0.45930939  0.75862675     0.35000
C4005       C  0.91844669  0.46577091  0.90546665    -0.26800
C4006       C  0.91969481  0.47994681  0.92857410    -0.14800
C4007       C  0.94283821  0.49221473  0.93548551     0.35800
C4008       C  0.96439952  0.48992940  0.91934490    -0.26200
C4009       C  0.96344620  0.47579368  0.89615040    -0.15500
C4010       C  0.94027543  0.46315258  0.88932268     0.36900
N4011       N  0.93868511  0.44839155  0.86588485    -0.89700
H4012       H  0.90042843  0.45660439  0.90013161     0.18000
H4013       H  0.98214404  0.49943212  0.92499156     0.18000
N4014       N  0.94405393  0.50783267  0.95838357    -0.88700
H4015       H  0.91982572  0.44181837  0.86301065     0.35400
H4016       H  0.95001441  0.43185544  0.86833861     0.40500
H4017       H  0.93173703  0.52359849  0.95554783     0.40100
H4018       H  0.96257706  0.51544524  0.96083050     0.35000
C4019       C  0.04135140  0.44018997  0.94845719    -0.26800
C4020       C  0.05219945  0.43110483  0.92548687    -0.14800
C4021       C  0.06494304  0.40705679  0.92512503     0.35800
C4022       C  0.06606313  0.39209777  0.94771510    -0.26200
C4023       C  0.05419952  0.40065484  0.97053946    -0.15500
C4024       C  0.04214804  0.42529997  0.97102156     0.36900
N4025       N  0.03087453  0.43527787  0.99441004    -0.89700
H4026       H  0.03144785  0.45865437  0.94858612     0.18000
H4027       H  0.07578609  0.37355696  0.94725047     0.18000
N4028       N  0.07685047  0.39787694  0.90188141    -0.88700
H4029       H  0.02222706  0.45325219  0.99117078     0.35400
H4030       H  0.04588649  0.43844397  0.00750026     0.40500
H4031       H  0.06861167  0.38003725  0.89725089     0.40100
H4032       H  0.09645351  0.39487842  0.90560888     0.35000
loop_ 
_geom_bond_atom_site_label_1 
_geom_bond_atom_site_label_2 
_geom_bond_distance 
_geom_bond_site_symmetry_2 
_ccdc_geom_bond_type 
O1           Cu9   2.020       .  S
O1           C11   1.280       .  A
O2           Cu9   2.014       .  S
O2           C12   1.280       .  A
O3           Cu9   1.976       .  S
O3           C13   1.273       .  A
O4           Cu9   1.973       .  S
O4           C14   1.274   1_455  A
O5          Cu10   2.034   1_655  S
O5           C14   1.281       .  A
O6          Cu10   2.024       .  S
O6           C13   1.281       .  A
O7          Cu10   1.979       .  S
O7           C12   1.273       .  A
O8          Cu10   1.985       .  S
O8           C11   1.274       .  A
Cu9         Cu10   2.371       .  S
C11        C3992   1.483       .  S
C12        C4020   1.466       .  S
C13        C3981   1.472       .  S
C14        C4009   1.484       .  S
O15         Cu23   1.967       .  S
O15          C25   1.272   1_554  A
O16         Cu23   1.968       .  S
O16          C26   1.273       .  A
O17         Cu23   2.021       .  S
O17          C27   1.281       .  A
O18         Cu23   2.017       .  S
O18          C28   1.280       .  A
O19         Cu24   1.997       .  S
O19          C28   1.276       .  A
O20         Cu24   1.989       .  S
O20          C27   1.274       .  A
O21         Cu24   2.020       .  S
O21          C26   1.281       .  A
O22         Cu24   2.027   1_556  S
O22          C25   1.281       .  A
Cu23        Cu24   2.370       .  S
C25        C4023   1.477       .  S
C26        C3936   1.481       .  S
C27        C3964   1.481       .  S
C28        C3953   1.482       .  S
O29         Cu37   1.982       .  S
O29          C39   1.273       .  A
O30         Cu37   1.985       .  S
O30          C40   1.274       .  A
O31         Cu37   2.034   1_554  S
O31          C41   1.281   1_554  A
O32         Cu37   2.024       .  S
O32          C42   1.281       .  A
O33         Cu38   1.993       .  S
O33          C42   1.274       .  A
O34         Cu38   1.995       .  S
O34          C41   1.276       .  A
O35         Cu38   2.020       .  S
O35          C40   1.280       .  A
O36         Cu38   2.006       .  S
O36          C39   1.280       .  A
Cu37        Cu38   2.367       .  S
C39        C3897   1.482       .  S
C40        C3922   1.480       .  S
C41        C3908   1.499   1_556  S
C42        C4006   1.473       .  S
O43         Cu51   2.032       .  S
O43          C53   1.282       .  A
O44         Cu51   2.029       .  S
O44          C54   1.281       .  A
O45         Cu51   1.961       .  S
O45          C55   1.270       .  A
O46         Cu51   1.973       .  S
O46          C56   1.273       .  A
O47         Cu52   2.033       .  S
O47          C56   1.281       .  A
O48         Cu52   2.026       .  S
O48          C55   1.282       .  A
O49         Cu52   1.981       .  S
O49          C54   1.273       .  A
O50         Cu52   1.987       .  S
O50          C53   1.275       .  A
Cu51        Cu52   2.371       .  S
C53        C3866   1.488       .  S
C54        C3883   1.476       .  S
C55        C3852   1.476       .  S
C56        C3967   1.473       .  S
O57         Cu65   1.976       .  S
O57          C67   1.272       .  A
O58         Cu65   1.975   1_455  S
O58          C68   1.273       .  A
O59         Cu65   2.025       .  S
O59          C69   1.281       .  A
O60         Cu65   2.027       .  S
O60          C70   1.282       .  A
O61         Cu66   1.981       .  S
O61          C70   1.274       .  A
O62         Cu66   1.994       .  S
O62          C69   1.275       .  A
O63         Cu66   2.026   1_455  S
O63          C68   1.280       .  A
O64         Cu66   2.013       .  S
O64          C67   1.281       .  A
Cu65        Cu66   2.373       .  S
C67        C3810   1.476       .  S
C68        C3880   1.467       .  S
C69        C3827   1.480       .  S
C70        C3838   1.481       .  S
O71         Cu79   2.026   1_554  S
O71          C81   1.280       .  A
O72         Cu79   2.014       .  S
O72          C82   1.281       .  A
O73         Cu79   1.989       .  S
O73          C83   1.274       .  A
O74         Cu79   1.998   1_554  S
O74          C84   1.276       .  A
O75         Cu80   2.026       .  S
O75          C84   1.281   1_556  A
O76         Cu80   2.015       .  S
O76          C83   1.280       .  A
O77         Cu80   1.977       .  S
O77          C82   1.272       .  A
O78         Cu80   1.974   1_554  S
O78          C81   1.274       .  A
Cu79        Cu80   2.371       .  S
C81        C3841   1.474       .  S
C82        C3782   1.479       .  S
C83        C3925   1.471       .  S
C84        C3796   1.489       .  S
O85         Cu93   1.977       .  S
O85          C95   1.273       .  A
O86         Cu93   1.963       .  S
O86          C96   1.271       .  A
O87         Cu93   2.037       .  S
O87          C97   1.282       .  A
O88         Cu93   2.038       .  S
O88          C98   1.282       .  A
O89         Cu94   1.988       .  S
O89          C98   1.275       .  A
O90         Cu94   1.984       .  S
O90          C97   1.274       .  A
O91         Cu94   2.024       .  S
O91          C96   1.281       .  A
O92         Cu94   2.027       .  S
O92          C95   1.281       .  A
Cu93        Cu94   2.368       .  S
C95        C3754   1.479       .  S
C96        C3726   1.474       .  S
C97        C3771   1.483       .  S
C98        C3740   1.497       .  S
O99        Cu107   2.014       .  S
O99         C109   1.280       .  A
O100       Cu107   2.012       .  S
O100        C110   1.280       .  A
O101       Cu107   1.983       .  S
O101        C111   1.274       .  A
O102       Cu107   1.980       .  S
O102        C112   1.273       .  A
O103       Cu108   2.029       .  S
O103        C112   1.280       .  A
O104       Cu108   2.021       .  S
O104        C111   1.281       .  A
O105       Cu108   1.993       .  S
O105        C110   1.275       .  A
O106       Cu108   2.006       .  S
O106        C109   1.277       .  A
Cu107      Cu108   2.372       .  S
C109       C3698   1.485       .  S
C110       C3757   1.477       .  S
C111       C3684   1.483       .  S
C112       C3712   1.470       .  S
O113       Cu121   1.974   1_455  S
O113        C123   1.273       .  A
O114       Cu121   1.967       .  S
O114        C124   1.272       .  A
O115       Cu121   2.035       .  S
O115        C125   1.283       .  A
O116       Cu121   2.036       .  S
O116        C126   1.283       .  A
O117       Cu122   1.982       .  S
O117        C126   1.273       .  A
O118       Cu122   1.977       .  S
O118        C125   1.272       .  A
O119       Cu122   2.033       .  S
O119        C124   1.282       .  A
O120       Cu122   2.038   1_455  S
O120        C123   1.282       .  A
Cu121      Cu122   2.368       .  S
C123       C3670   1.485       .  S
C124       C3656   1.480       .  S
C125       C3715   1.480       .  S
C126       C3824   1.490       .  S
O127       Cu135   2.022       .  S
O127        C137   1.281       .  A
O128       Cu135   2.022       .  S
O128        C138   1.281       .  A
O129       Cu135   1.984       .  S
O129        C139   1.273       .  A
O130       Cu135   1.984       .  S
O130        C140   1.275       .  A
O131       Cu136   2.026       .  S
O131        C140   1.281       .  A
O132       Cu136   2.042       .  S
O132        C139   1.282       .  A
O133       Cu136   2.014       .  S
O133        C138   1.277       .  A
O134       Cu136   1.997       .  S
O134        C137   1.275       .  A
Cu135      Cu136   2.369       .  S
C137       C3673   1.481       .  S
C138       C3628   1.488       .  S
C139       C3642   1.477       .  S
C140       C3614   1.490       .  S
O141       Cu149   2.017       .  S
O141        C151   1.281       .  A
O142       Cu149   2.028   1_655  S
O142        C152   1.280       .  A
O143       Cu149   1.998       .  S
O143        C153   1.274       .  A
O144       Cu149   1.982       .  S
O144        C154   1.274       .  A
O145       Cu150   2.011       .  S
O145        C154   1.279       .  A
O146       Cu150   2.009       .  S
O146        C153   1.281       .  A
O147       Cu150   1.978   1_655  S
O147        C152   1.273       .  A
O148       Cu150   1.976       .  S
O148        C151   1.272       .  A
Cu149      Cu150   2.370       .  S
C151       C3589   1.475       .  S
C152       C3768   1.468       .  S
C153       C3995   1.490       .  S
C154       C3600   1.477       .  S
O155       Cu163   1.971       .  S
O155        C165   1.273       .  A
O156       Cu163   1.957       .  S
O156        C166   1.271       .  A
O157       Cu163   2.039       .  S
O157        C167   1.283       .  A
O158       Cu163   2.045       .  S
O158        C168   1.283       .  A
O159       Cu164   2.002       .  S
O159        C168   1.277       .  A
O160       Cu164   1.998       .  S
O160        C167   1.275       .  A
O161       Cu164   2.020       .  S
O161        C166   1.281       .  A
O162       Cu164   2.022       .  S
O162        C165   1.280       .  A
Cu163      Cu164   2.369       .  S
C165       C3603   1.474       .  S
C166       C3558   1.474       .  S
C167       C3645   1.483       .  S
C168       C3572   1.501       .  S
O169       Cu177   2.002       .  S
O169        C179   1.276       .  A
O170       Cu177   2.009       .  S
O170        C180   1.278       .  A
O171       Cu177   2.029       .  S
O171        C181   1.280       .  A
O172       Cu177   2.018       .  S
O172        C182   1.279       .  A
O173       Cu178   1.980       .  S
O173        C182   1.274       .  A
O174       Cu178   1.986       .  S
O174        C181   1.274       .  A
O175       Cu178   2.022       .  S
O175        C180   1.280       .  A
O176       Cu178   2.015       .  S
O176        C179   1.280       .  A
Cu177      Cu178   2.368       .  S
C179       C3544   1.482       .  S
C180       C3516   1.495       .  S
C181       C3533   1.471       .  S
C182       C3502   1.488       .  S
O183       Cu191   2.017       .  S
O183        C193   1.282       .  A
O184       Cu191   2.027       .  S
O184        C194   1.281       .  A
O185       Cu191   1.998       .  S
O185        C195   1.276       .  A
O186       Cu191   1.990       .  S
O186        C196   1.274       .  A
O187       Cu192   2.018       .  S
O187        C196   1.282       .  A
O188       Cu192   2.024   1_554  S
O188        C195   1.281   1_554  A
O189       Cu192   1.979       .  S
O189        C194   1.274       .  A
O190       Cu192   1.972       .  S
O190        C193   1.270       .  A
Cu191      Cu192   2.366       .  S
C193       C3474   1.484       .  S
C194       C3488   1.480       .  S
C195       C3869   1.492   1_556  S
C196       C3530   1.485       .  S
O197       Cu205   1.995   1_554  S
O197        C207   1.276       .  A
O198       Cu205   1.991       .  S
O198        C208   1.275       .  A
O199       Cu205   2.020       .  S
O199        C209   1.280       .  A
O200       Cu205   2.030   1_554  S
O200        C210   1.280       .  A
O201       Cu206   1.966   1_554  S
O201        C210   1.273       .  A
O202       Cu206   1.968       .  S
O202        C209   1.271       .  A
O203       Cu206   2.017       .  S
O203        C208   1.280       .  A
O204       Cu206   2.020       .  S
O204        C207   1.281   1_556  A
Cu205      Cu206   2.372       .  S
C207       C3446   1.490       .  S
C208       C3491   1.478       .  S
C209       C3432   1.462       .  S
C210       C3460   1.470       .  S
O211       Cu219   2.013       .  S
O211        C221   1.280       .  A
O212       Cu219   2.024       .  S
O212        C222   1.281       .  A
O213       Cu219   1.980       .  S
O213        C223   1.274       .  A
O214       Cu219   1.975       .  S
O214        C224   1.273       .  A
O215       Cu220   2.019       .  S
O215        C224   1.280       .  A
O216       Cu220   2.029       .  S
O216        C223   1.281       .  A
O217       Cu220   1.996       .  S
O217        C222   1.275       .  A
O218       Cu220   1.989       .  S
O218        C221   1.274       .  A
Cu219      Cu220   2.370       .  S
C221       C3463   1.476       .  S
C222       C3404   1.488       .  S
C223       C3418   1.477       .  S
C224       C3390   1.484       .  S
O225       Cu233   2.028       .  S
O225        C235   1.283       .  A
O226       Cu233   2.037   1_556  S
O226        C236   1.281       .  A
O227       Cu233   1.991       .  S
O227        C237   1.274       .  A
O228       Cu233   1.981       .  S
O228        C238   1.272       .  A
O229       Cu234   2.042       .  S
O229        C238   1.284       .  A
O230       Cu234   2.038       .  S
O230        C237   1.283       .  A
O231       Cu234   1.968       .  S
O231        C236   1.272   1_554  A
O232       Cu234   1.957       .  S
O232        C235   1.268       .  A
Cu233      Cu234   2.367       .  S
C235       C3351   1.479       .  S
C236       C3547   1.474       .  S
C237       C3362   1.491       .  S
C238       C3379   1.489       .  S
O239       Cu247   1.987       .  S
O239        C249   1.273       .  A
O240       Cu247   1.980       .  S
O240        C250   1.274       .  A
O241       Cu247   2.020       .  S
O241        C251   1.280       .  A
O242       Cu247   2.023       .  S
O242        C252   1.281       .  A
O243       Cu248   2.009       .  S
O243        C252   1.277       .  A
O244       Cu248   1.991       .  S
O244        C251   1.275       .  A
O245       Cu248   2.016       .  S
O245        C250   1.280       .  A
O246       Cu248   2.034       .  S
O246        C249   1.281       .  A
Cu247      Cu248   2.371       .  S
C249       C3376   1.472       .  S
C250       C3334   1.480       .  S
C251       C3421   1.481       .  S
C252       C3911   1.487       .  S
O253       Cu261   1.996       .  S
O253        C263   1.276       .  A
O254       Cu261   2.011       .  S
O254        C264   1.277       .  A
O255       Cu261   2.030       .  S
O255        C265   1.280       .  A
O256       Cu261   2.019       .  S
O256        C266   1.282       .  A
O257       Cu262   1.977       .  S
O257        C266   1.272       .  A
O258       Cu262   1.981       .  S
O258        C265   1.274       .  A
O259       Cu262   2.026       .  S
O259        C264   1.281       .  A
O260       Cu262   2.018       .  S
O260        C263   1.280       .  A
Cu261      Cu262   2.368       .  S
C263       C3320   1.485       .  S
C264       C3292   1.496       .  S
C265       C3306   1.476       .  S
C266       C3281   1.484       .  S
O267       Cu275   2.033       .  S
O267        C277   1.283       .  A
O268       Cu275   2.039       .  S
O268        C278   1.282       .  A
O269       Cu275   1.998       .  S
O269        C279   1.275       .  A
O270       Cu275   1.992       .  S
O270        C280   1.275       .  A
O271       Cu276   2.021       .  S
O271        C280   1.281       .  A
O272       Cu276   2.024       .  S
O272        C279   1.282       .  A
O273       Cu276   1.968       .  S
O273        C278   1.272       .  A
O274       Cu276   1.971       .  S
O274        C277   1.270       .  A
Cu275      Cu276   2.367       .  S
C277       C3250   1.487       .  S
C278       C3264   1.477       .  S
C279       C3407   1.494       .  S
C280       C3309   1.482       .  S
O281       Cu289   2.007       .  S
O281        C291   1.277       .  A
O282       Cu289   1.996       .  S
O282        C292   1.275       .  A
O283       Cu289   2.011       .  S
O283        C293   1.281       .  A
O284       Cu289   2.027       .  S
O284        C294   1.280       .  A
O285       Cu290   1.981       .  S
O285        C294   1.273       .  A
O286       Cu290   1.979       .  S
O286        C293   1.272       .  A
O287       Cu290   2.018       .  S
O287        C292   1.281       .  A
O288       Cu290   2.018       .  S
O288        C291   1.280       .  A
Cu289      Cu290   2.370       .  S
C291       C3743   1.487       .  S
C292       C3267   1.480       .  S
C293       C3225   1.482       .  S
C294       C3239   1.468       .  S
O295       Cu303   2.032       .  S
O295        C305   1.282       .  A
O296       Cu303   2.028       .  S
O296        C306   1.281       .  A
O297       Cu303   1.962       .  S
O297        C307   1.272       .  A
O298       Cu303   1.979       .  S
O298        C308   1.273       .  A
O299       Cu304   2.048       .  S
O299        C308   1.283       .  A
O300       Cu304   2.034       .  S
O300        C307   1.282       .  A
O301       Cu304   1.990       .  S
O301        C306   1.275       .  A
O302       Cu304   2.002       .  S
O302        C305   1.276       .  A
Cu303      Cu304   2.368       .  S
C305       C3194   1.485       .  S
C306       C3236   1.481       .  S
C307       C3180   1.485       .  S
C308       C3211   1.485       .  S
O309       Cu317   1.983       .  S
O309        C319   1.273       .  A
O310       Cu317   1.980       .  S
O310        C320   1.273       .  A
O311       Cu317   2.028       .  S
O311        C321   1.282       .  A
O312       Cu317   2.030       .  S
O312        C322   1.282       .  A
O313       Cu318   2.010       .  S
O313        C322   1.278       .  A
O314       Cu318   2.004       .  S
O314        C321   1.276       .  A
O315       Cu318   2.021       .  S
O315        C320   1.280       .  A
O316       Cu318   2.030       .  S
O316        C319   1.281       .  A
Cu317      Cu318   2.372       .  S
C319       C3169   1.470       .  S
C320       C3152   1.469       .  S
C321       C3208   1.488       .  S
C322       C3519   1.494       .  S
O323       Cu331   2.032       .  S
O323        C333   1.281       .  A
O324       Cu331   2.028       .  S
O324        C334   1.282       .  A
O325       Cu331   1.990       .  S
O325        C335   1.274       .  A
O326       Cu331   1.996       .  S
O326        C336   1.275       .  A
O327       Cu332   2.038       .  S
O327        C336   1.283       .  A
O328       Cu332   2.032       .  S
O328        C335   1.282       .  A
O329       Cu332   1.968       .  S
O329        C334   1.270       .  A
O330       Cu332   1.974       .  S
O330        C333   1.273       .  A
Cu331      Cu332   2.367       .  S
C333       C3323   1.474       .  S
C334       C3138   1.485       .  S
C335       C3166   1.484       .  S
C336       C3631   1.498       .  S
O337       Cu345   1.960       .  S
O337        C347   1.271       .  A
O338       Cu345   1.976       .  S
O338        C348   1.274       .  A
O339       Cu345   2.049       .  S
O339        C349   1.284       .  A
O340       Cu345   2.041       .  S
O340        C350   1.283       .  A
O341       Cu346   1.987       .  S
O341        C350   1.274       .  A
O342       Cu346   1.993       .  S
O342        C349   1.276       .  A
O343       Cu346   2.036       .  S
O343        C348   1.281       .  A
O344       Cu346   2.026       .  S
O344        C347   1.281       .  A
Cu345      Cu346   2.370       .  S
C347       C3096   1.465       .  S
C348       C3110   1.480       .  S
C349       C3295   1.497       .  S
C350       C3127   1.487       .  S
O351       Cu359   2.027       .  S
O351        C361   1.280       .  A
O352       Cu359   2.039       .  S
O352        C362   1.283       .  A
O353       Cu359   2.008       .  S
O353        C363   1.277       .  A
O354       Cu359   1.999       .  S
O354        C364   1.276       .  A
O355       Cu360   2.020       .  S
O355        C364   1.280       .  A
O356       Cu360   2.019   1_545  S
O356        C363   1.281   1_545  A
O357       Cu360   1.971       .  S
O357        C362   1.273       .  A
O358       Cu360   1.961       .  S
O358        C361   1.273       .  A
Cu359      Cu360   2.369       .  S
C361       C3054   1.482       .  S
C362       C3082   1.482       .  S
C363       C3068   1.490   1_565  S
C364       C3113   1.480       .  S
O365       Cu373   2.031       .  S
O365        C375   1.282       .  A
O366       Cu373   2.025       .  S
O366        C376   1.281       .  A
O367       Cu373   1.953       .  S
O367        C377   1.272       .  A
O368       Cu373   1.966       .  S
O368        C378   1.273       .  A
O369       Cu374   2.020       .  S
O369        C378   1.280       .  A
O370       Cu374   2.020       .  S
O370        C377   1.280       .  A
O371       Cu374   1.994       .  S
O371        C376   1.275       .  A
O372       Cu374   2.002       .  S
O372        C375   1.276       .  A
Cu373      Cu374   2.367       .  S
C375       C3197   1.498       .  S
C376       C3040   1.477       .  S
C377       C3012   1.480       .  S
C378       C3029   1.477       .  S
O379       Cu387   1.984   1_545  S
O379        C389   1.273       .  A
O380       Cu387   1.988       .  S
O380        C390   1.275       .  A
O381       Cu387   2.016       .  S
O381        C391   1.280       .  A
O382       Cu387   2.011   1_545  S
O382        C392   1.280       .  A
O383       Cu388   2.000       .  S
O383        C392   1.276       .  A
O384       Cu388   1.995   1_565  S
O384        C391   1.275       .  A
O385       Cu388   2.018   1_565  S
O385        C390   1.280       .  A
O386       Cu388   2.022       .  S
O386        C389   1.280       .  A
Cu387      Cu388   2.370   1_565  S
C389       C3043   1.468       .  S
C390       C2984   1.480       .  S
C391       C3085   1.477       .  S
C392       C2998   1.489       .  S
O393       Cu401   1.989       .  S
O393        C403   1.275       .  A
O394       Cu401   1.982       .  S
O394        C404   1.273       .  A
O395       Cu401   2.018       .  S
O395        C405   1.280       .  A
O396       Cu401   2.025       .  S
O396        C406   1.280       .  A
O397       Cu402   1.963       .  S
O397        C406   1.273       .  A
O398       Cu402   1.968       .  S
O398        C405   1.273       .  A
O399       Cu402   2.011       .  S
O399        C404   1.279       .  A
O400       Cu402   2.011       .  S
O400        C403   1.279       .  A
Cu401      Cu402   2.371       .  S
C403       C2959   1.482       .  S
C404       C3026   1.469       .  S
C405       C2945   1.481       .  S
C406       C2970   1.474       .  S
O407       Cu415   2.031       .  S
O407        C417   1.280   1_545  A
O408       Cu415   2.022       .  S
O408        C418   1.281       .  A
O409       Cu415   1.993       .  S
O409        C419   1.275       .  A
O410       Cu415   2.006       .  S
O410        C420   1.278       .  A
O411       Cu416   2.005       .  S
O411        C420   1.278       .  A
O412       Cu416   1.998       .  S
O412        C419   1.278       .  A
O413       Cu416   1.991       .  S
O413        C418   1.274       .  A
O414       Cu416   1.991       .  S
O414        C417   1.275   1_545  A
Cu415      Cu416   2.372       .  S
C417       C3124   1.471       .  S
C418       C2917   1.480       .  S
C419       C2973   1.472       .  S
C420       C2931   1.487       .  S
O421       Cu429   2.030   1_556  S
O421        C431   1.280       .  A
O422       Cu429   2.033       .  S
O422        C432   1.282       .  A
O423       Cu429   1.991       .  S
O423        C433   1.274       .  A
O424       Cu429   1.997       .  S
O424        C434   1.275       .  A
O425       Cu430   2.030       .  S
O425        C434   1.282       .  A
O426       Cu430   2.030       .  S
O426        C433   1.281       .  A
O427       Cu430   1.959       .  S
O427        C432   1.272       .  A
O428       Cu430   1.965       .  S
O428        C431   1.272   1_554  A
Cu429      Cu430   2.369       .  S
C431       C2889   1.469       .  S
C432       C2875   1.483       .  S
C433       C2900   1.475       .  S
C434       C3365   1.496       .  S
O435       Cu443   1.980       .  S
O435        C445   1.273       .  A
O436       Cu443   1.998       .  S
O436        C446   1.276       .  A
O437       Cu443   2.029       .  S
O437        C447   1.280   1_545  A
O438       Cu443   2.025       .  S
O438        C448   1.282       .  A
O439       Cu444   1.976       .  S
O439        C448   1.273       .  A
O440       Cu444   1.983       .  S
O440        C447   1.273   1_545  A
O441       Cu444   2.025       .  S
O441        C446   1.281       .  A
O442       Cu444   2.027       .  S
O442        C445   1.281       .  A
Cu443      Cu444   2.371       .  S
C445       C2858   1.474       .  S
C446       C2844   1.490       .  S
C447       C2903   1.471       .  S
C448       C2830   1.485       .  S
O449       Cu457   1.962       .  S
O449        C459   1.272       .  A
O450       Cu457   1.962       .  S
O450        C460   1.270       .  A
O451       Cu457   2.012       .  S
O451        C461   1.281       .  A
O452       Cu457   2.019   1_545  S
O452        C462   1.280   1_545  A
O453       Cu458   1.987       .  S
O453        C462   1.275       .  A
O454       Cu458   1.983       .  S
O454        C461   1.273       .  A
O455       Cu458   2.024       .  S
O455        C460   1.282       .  A
O456       Cu458   2.030       .  S
O456        C459   1.281       .  A
Cu457      Cu458   2.373       .  S
C459       C2816   1.470       .  S
C460       C2802   1.467       .  S
C461       C2886   1.478       .  S
C462       C2956   1.485   1_565  S
O463       Cu471   2.023       .  S
O463        C473   1.281       .  A
O464       Cu471   2.017       .  S
O464        C474   1.280       .  A
O465       Cu471   1.981       .  S
O465        C475   1.273       .  A
O466       Cu471   1.983       .  S
O466        C476   1.274       .  A
O467       Cu472   2.016       .  S
O467        C476   1.278       .  A
O468       Cu472   2.015       .  S
O468        C475   1.279       .  A
O469       Cu472   2.000       .  S
O469        C474   1.277       .  A
O470       Cu472   2.008       .  S
O470        C473   1.277       .  A
Cu471      Cu472   2.370       .  S
C473       C3071   1.498       .  S
C474       C2788   1.485       .  S
C475       C2777   1.469       .  S
C476       C2861   1.465       .  S
O477       Cu485   1.990       .  S
O477        C487   1.274       .  A
O478       Cu485   1.988   1_554  S
O478        C488   1.273       .  A
O479       Cu485   2.030       .  S
O479        C489   1.282       .  A
O480       Cu485   2.024       .  S
O480        C490   1.281       .  A
O481       Cu486   1.978       .  S
O481        C490   1.273       .  A
O482       Cu486   1.982   1_554  S
O482        C489   1.274   1_554  A
O483       Cu486   2.025   1_554  S
O483        C488   1.280       .  A
O484       Cu486   2.019       .  S
O484        C487   1.280       .  A
Cu485      Cu486   2.373       .  S
C487       C2746   1.474       .  S
C488       C2791   1.466       .  S
C489       C3449   1.485   1_556  S
C490       C2763   1.475       .  S
O491       Cu499   2.036       .  S
O491        C501   1.282       .  A
O492       Cu499   2.032   1_565  S
O492        C502   1.282       .  A
O493       Cu499   1.986   1_565  S
O493        C503   1.274       .  A
O494       Cu499   1.995       .  S
O494        C504   1.276       .  A
O495       Cu500   2.016       .  S
O495        C504   1.280   1_565  A
O496       Cu500   2.014       .  S
O496        C503   1.280       .  A
O497       Cu500   1.966       .  S
O497        C502   1.272       .  A
O498       Cu500   1.968   1_545  S
O498        C501   1.273       .  A
Cu499      Cu500   2.370   1_545  S
C501       C2760   1.480       .  S
C502       C2721   1.474       .  S
C503       C2819   1.477       .  S
C504       C2735   1.487       .  S
O505       Cu513   1.971       .  S
O505        C515   1.273   1_554  A
O506       Cu513   1.968       .  S
O506        C516   1.271       .  A
O507       Cu513   2.020       .  S
O507        C517   1.280       .  A
O508       Cu513   2.018       .  S
O508        C518   1.280       .  A
O509       Cu514   1.994       .  S
O509        C518   1.276       .  A
O510       Cu514   1.988       .  S
O510        C517   1.274       .  A
O511       Cu514   2.038       .  S
O511        C516   1.284       .  A
O512       Cu514   2.037   1_556  S
O512        C515   1.281       .  A
Cu513      Cu514   2.371       .  S
C515       C2693   1.476       .  S
C516       C2676   1.483       .  S
C517       C2704   1.469       .  S
C518       C3950   1.490       .  S
O519       Cu527   2.020       .  S
O519        C529   1.280       .  A
O520       Cu527   2.014   1_545  S
O520        C530   1.279       .  A
O521       Cu527   1.983   1_545  S
O521        C531   1.274       .  A
O522       Cu527   1.983       .  S
O522        C532   1.275       .  A
O523       Cu528   2.016   1_565  S
O523        C532   1.278       .  A
O524       Cu528   2.019       .  S
O524        C531   1.280       .  A
O525       Cu528   1.998       .  S
O525        C530   1.277       .  A
O526       Cu528   1.993   1_565  S
O526        C529   1.275       .  A
Cu527      Cu528   2.371   1_565  S
C529       C2662   1.475       .  S
C530       C2732   1.485       .  S
C531       C2707   1.470       .  S
C532       C2648   1.482       .  S
O533       Cu541   1.977       .  S
O533        C543   1.274       .  A
O534       Cu541   1.980   1_655  S
O534        C544   1.274       .  A
O535       Cu541   2.022   1_545  S
O535        C545   1.280   1_545  A
O536       Cu541   2.014       .  S
O536        C546   1.280       .  A
O537       Cu542   1.993       .  S
O537        C546   1.274       .  A
O538       Cu542   1.999       .  S
O538        C545   1.277       .  A
O539       Cu542   2.030   1_655  S
O539        C544   1.281       .  A
O540       Cu542   2.022       .  S
O540        C543   1.280       .  A
Cu541      Cu542   2.371       .  S
C543       C2606   1.474       .  S
C544       C2665   1.482       .  S
C545       C2620   1.491   1_565  S
C546       C2634   1.470       .  S
O547       Cu555   2.026       .  S
O547        C557   1.281       .  A
O548       Cu555   2.038   1_554  S
O548        C558   1.283       .  A
O549       Cu555   2.001   1_554  S
O549        C559   1.277   1_554  A
O550       Cu555   1.996       .  S
O550        C560   1.275       .  A
O551       Cu556   2.023       .  S
O551        C560   1.281       .  A
O552       Cu556   2.024       .  S
O552        C559   1.281       .  A
O553       Cu556   1.974   1_554  S
O553        C558   1.272       .  A
O554       Cu556   1.963       .  S
O554        C557   1.272       .  A
Cu555      Cu556   2.369       .  S
C557       C2581   1.471       .  S
C558       C2637   1.483       .  S
C559       C3799   1.492   1_556  S
C560       C2592   1.482       .  S
O561       Cu569   2.000       .  S
O561        C571   1.277       .  A
O562       Cu569   1.988       .  S
O562        C572   1.274       .  A
O563       Cu569   2.037       .  S
O563        C573   1.282       .  A
O564       Cu569   2.045       .  S
O564        C574   1.283   1_545  A
O565       Cu570   1.966       .  S
O565        C574   1.273   1_545  A
O566       Cu570   1.953       .  S
O566        C573   1.271       .  A
O567       Cu570   2.023       .  S
O567        C572   1.280       .  A
O568       Cu570   2.024       .  S
O568        C571   1.280       .  A
Cu569      Cu570   2.370       .  S
C571       C2847   1.491       .  S
C572       C2567   1.466       .  S
C573       C2550   1.482       .  S
C574       C2595   1.480       .  S
O575       Cu583   2.031       .  S
O575        C585   1.283       .  A
O576       Cu583   2.040   1_455  S
O576        C586   1.282       .  A
O577       Cu583   2.004       .  S
O577        C587   1.277       .  A
O578       Cu583   1.996       .  S
O578        C588   1.274       .  A
O579       Cu584   2.016       .  S
O579        C588   1.282       .  A
O580       Cu584   2.015       .  S
O580        C587   1.279       .  A
O581       Cu584   1.966   1_455  S
O581        C586   1.273       .  A
O582       Cu584   1.965       .  S
O582        C585   1.271       .  A
Cu583      Cu584   2.368       .  S
C585       C2522   1.482       .  S
C586       C2564   1.479       .  S
C587       C2536   1.486       .  S
C588       C2690   1.486       .  S
O589       Cu597   1.973   1_655  S
O589        C599   1.273       .  A
O590       Cu597   1.972       .  S
O590        C600   1.272       .  A
O591       Cu597   2.021       .  S
O591        C601   1.281       .  A
O592       Cu597   2.020       .  S
O592        C602   1.280       .  A
O593       Cu598   2.001       .  S
O593        C602   1.277       .  A
O594       Cu598   1.991       .  S
O594        C601   1.275       .  A
O595       Cu598   2.011       .  S
O595        C600   1.280       .  A
O596       Cu598   2.022   1_655  S
O596        C599   1.279       .  A
Cu597      Cu598   2.372       .  S
C599       C2494   1.468       .  S
C600       C2480   1.469       .  S
C601       C2508   1.485       .  S
C602       C2623   1.486       .  S
O603       Cu611   2.021       .  S
O603        C613   1.279       .  A
O604       Cu611   2.026       .  S
O604        C614   1.281       .  A
O605       Cu611   1.987       .  S
O605        C615   1.275   1_545  A
O606       Cu611   1.975       .  S
O606        C616   1.274       .  A
O607       Cu612   2.014       .  S
O607        C616   1.279       .  A
O608       Cu612   2.018       .  S
O608        C615   1.279   1_545  A
O609       Cu612   1.986       .  S
O609        C614   1.275       .  A
O610       Cu612   1.981       .  S
O610        C613   1.274       .  A
Cu611      Cu612   2.369       .  S
C613       C2497   1.469       .  S
C614       C2928   1.489       .  S
C615       C2469   1.478       .  S
C616       C2452   1.485       .  S
O617       Cu625   1.985       .  S
O617        C627   1.274       .  A
O618       Cu625   1.985       .  S
O618        C628   1.274       .  A
O619       Cu625   2.019       .  S
O619        C629   1.280       .  A
O620       Cu625   2.029       .  S
O620        C630   1.282       .  A
O621       Cu626   2.014       .  S
O621        C630   1.277       .  A
O622       Cu626   1.995       .  S
O622        C629   1.276       .  A
O623       Cu626   2.017       .  S
O623        C628   1.280       .  A
O624       Cu626   2.033       .  S
O624        C627   1.281       .  A
Cu625      Cu626   2.373       .  S
C627       C2438   1.473       .  S
C628       C2424   1.474       .  S
C629       C2466   1.482       .  S
C630       C3575   1.489       .  S
O631       Cu639   2.020       .  S
O631        C641   1.281       .  A
O632       Cu639   2.026       .  S
O632        C642   1.280       .  A
O633       Cu639   1.994       .  S
O633        C643   1.275       .  A
O634       Cu639   1.989       .  S
O634        C644   1.274       .  A
O635       Cu640   2.014       .  S
O635        C644   1.281       .  A
O636       Cu640   2.024       .  S
O636        C643   1.281       .  A
O637       Cu640   1.985       .  S
O637        C642   1.275       .  A
O638       Cu640   1.982       .  S
O638        C641   1.274       .  A
Cu639      Cu640   2.366       .  S
C641       C2399   1.487       .  S
C642       C2511   1.477       .  S
C643       C3701   1.493       .  S
C644       C2413   1.485       .  S
O645       Cu653   1.982   1_565  S
O645        C655   1.274       .  A
O646       Cu653   1.986       .  S
O646        C656   1.274       .  A
O647       Cu653   2.019       .  S
O647        C657   1.278       .  A
O648       Cu653   2.016   1_565  S
O648        C658   1.281       .  A
O649       Cu654   1.981       .  S
O649        C658   1.273       .  A
O650       Cu654   1.980   1_545  S
O650        C657   1.273       .  A
O651       Cu654   2.017   1_545  S
O651        C656   1.280       .  A
O652       Cu654   2.013       .  S
O652        C655   1.280       .  A
Cu653      Cu654   2.371   1_545  S
C655       C2385   1.480       .  S
C656       C3001   1.483       .  S
C657       C2410   1.464       .  S
C658       C2368   1.484       .  S
O659       Cu667   2.009   1_455  S
O659        C669   1.278       .  A
O660       Cu667   2.008       .  S
O660        C670   1.278       .  A
O661       Cu667   1.995       .  S
O661        C671   1.275       .  A
O662       Cu667   1.995       .  S
O662        C672   1.276       .  A
O663       Cu668   2.028   1_545  S
O663        C672   1.281   1_545  A
O664       Cu668   2.024       .  S
O664        C671   1.281       .  A
O665       Cu668   1.974       .  S
O665        C670   1.274       .  A
O666       Cu668   1.981   1_455  S
O666        C669   1.274       .  A
Cu667      Cu668   2.368       .  S
C669       C2382   1.465       .  S
C670       C2354   1.482       .  S
C671       C2441   1.485       .  S
C672       C2539   1.493   1_565  S
O673       Cu681   1.976       .  S
O673        C683   1.273       .  A
O674       Cu681   1.979       .  S
O674        C684   1.273       .  A
O675       Cu681   2.022       .  S
O675        C685   1.280       .  A
O676       Cu681   2.028       .  S
O676        C686   1.282       .  A
O677       Cu682   1.989       .  S
O677        C686   1.275       .  A
O678       Cu682   1.996       .  S
O678        C685   1.276       .  A
O679       Cu682   2.027       .  S
O679        C684   1.280       .  A
O680       Cu682   2.027       .  S
O680        C683   1.281       .  A
Cu681      Cu682   2.371       .  S
C683       C3505   1.481       .  S
C684       C2326   1.470       .  S
C685       C2312   1.489       .  S
C686       C2343   1.481       .  S
O687       Cu695   2.043       .  S
O687        C697   1.282       .  A
O688       Cu695   2.035       .  S
O688        C698   1.282       .  A
O689       Cu695   1.959       .  S
O689        C699   1.271       .  A
O690       Cu695   1.968       .  S
O690        C700   1.272       .  A
O691       Cu696   2.029       .  S
O691        C700   1.281       .  A
O692       Cu696   2.028       .  S
O692        C699   1.281       .  A
O693       Cu696   1.983       .  S
O693        C698   1.273       .  A
O694       Cu696   1.989       .  S
O694        C697   1.275       .  A
Cu695      Cu696   2.373       .  S
C697       C2284   1.487       .  S
C698       C2329   1.474       .  S
C699       C3785   1.467       .  S
C700       C2298   1.475       .  S
O701       Cu709   1.972       .  S
O701        C711   1.272       .  A
O702       Cu709   1.976       .  S
O702        C712   1.274       .  A
O703       Cu709   2.021       .  S
O703        C713   1.281       .  A
O704       Cu709   2.015       .  S
O704        C714   1.280       .  A
O705       Cu710   1.994       .  S
O705        C714   1.275       .  A
O706       Cu710   2.003       .  S
O706        C713   1.277       .  A
O707       Cu710   2.030       .  S
O707        C712   1.281       .  A
O708       Cu710   2.017       .  S
O708        C711   1.281       .  A
Cu709      Cu710   2.369       .  S
C711       C3099   1.478       .  S
C712       C2256   1.480       .  S
C713       C2242   1.492       .  S
C714       C2270   1.476       .  S
O715       Cu723   2.015       .  S
O715        C725   1.281       .  A
O716       Cu723   2.024       .  S
O716        C726   1.279       .  A
O717       Cu723   2.005       .  S
O717        C727   1.277       .  A
O718       Cu723   1.991       .  S
O718        C728   1.275       .  A
O719       Cu724   2.018       .  S
O719        C728   1.280       .  A
O720       Cu724   2.020       .  S
O720        C727   1.280       .  A
O721       Cu724   1.990       .  S
O721        C726   1.274       .  A
O722       Cu724   1.992       .  S
O722        C725   1.274       .  A
Cu723      Cu724   2.370       .  S
C725       C2718   1.487       .  S
C726       C2340   1.468       .  S
C727       C2228   1.490       .  S
C728       C2259   1.477       .  S
O729       Cu737   1.996       .  S
O729        C739   1.275       .  A
O730       Cu737   1.984       .  S
O730        C740   1.272       .  A
O731       Cu737   2.004       .  S
O731        C741   1.280       .  A
O732       Cu737   2.015       .  S
O732        C742   1.278       .  A
O733       Cu738   1.986       .  S
O733        C742   1.274       .  A
O734       Cu738   1.984       .  S
O734        C741   1.273       .  A
O735       Cu738   2.020       .  S
O735        C740   1.281       .  A
O736       Cu738   2.024       .  S
O736        C739   1.281       .  A
Cu737      Cu738   2.370       .  S
C739       C2200   1.490       .  S
C740       C2301   1.479       .  S
C741       C3729   1.482       .  S
C742       C2214   1.463       .  S
O743       Cu751   2.016       .  S
O743        C753   1.280       .  A
O744       Cu751   2.022       .  S
O744        C754   1.279       .  A
O745       Cu751   1.986       .  S
O745        C755   1.275       .  A
O746       Cu751   1.980       .  S
O746        C756   1.274       .  A
O747       Cu752   2.030       .  S
O747        C756   1.282       .  A
O748       Cu752   2.035       .  S
O748        C755   1.281       .  A
O749       Cu752   1.979       .  S
O749        C754   1.275       .  A
O750       Cu752   1.968       .  S
O750        C753   1.272       .  A
Cu751      Cu752   2.369       .  S
C753       C2357   1.475       .  S
C754       C2273   1.478       .  S
C755       C2186   1.493       .  S
C756       C2217   1.480       .  S
O757       Cu765   1.976       .  S
O757        C767   1.273       .  A
O758       Cu765   1.965       .  S
O758        C768   1.270       .  A
O759       Cu765   2.031       .  S
O759        C769   1.282       .  A
O760       Cu765   2.034       .  S
O760        C770   1.283       .  A
O761       Cu766   1.999       .  S
O761        C770   1.275       .  A
O762       Cu766   1.988       .  S
O762        C769   1.274       .  A
O763       Cu766   2.033       .  S
O763        C768   1.283       .  A
O764       Cu766   2.041       .  S
O764        C767   1.282       .  A
Cu765      Cu766   2.368       .  S
C767       C2158   1.477       .  S
C768       C2371   1.479       .  S
C769       C2175   1.480       .  S
C770       C2144   1.498       .  S
O771       Cu779   2.033       .  S
O771        C781   1.282       .  A
O772       Cu779   2.025       .  S
O772        C782   1.281       .  A
O773       Cu779   1.996       .  S
O773        C783   1.275       .  A
O774       Cu779   2.003       .  S
O774        C784   1.276       .  A
O775       Cu780   2.017       .  S
O775        C784   1.280       .  A
O776       Cu780   2.027       .  S
O776        C783   1.282       .  A
O777       Cu780   1.968       .  S
O777        C782   1.273       .  A
O778       Cu780   1.978       .  S
O778        C781   1.273       .  A
Cu779      Cu780   2.369       .  S
C781       C2133   1.474       .  S
C782       C3586   1.483       .  S
C783       C2161   1.490       .  S
C784       C2116   1.485       .  S
O785       Cu793   2.024       .  S
O785        C795   1.281       .  A
O786       Cu793   2.021       .  S
O786        C796   1.281       .  A
O787       Cu793   1.969       .  S
O787        C797   1.271       .  A
O788       Cu793   1.972       .  S
O788        C798   1.273       .  A
O789       Cu794   2.030       .  S
O789        C798   1.280       .  A
O790       Cu794   2.019       .  S
O790        C797   1.281       .  A
O791       Cu794   1.991       .  S
O791        C796   1.275       .  A
O792       Cu794   1.996       .  S
O792        C795   1.276       .  A
Cu793      Cu794   2.369       .  S
C795       C2074   1.489       .  S
C796       C2102   1.484       .  S
C797       C3477   1.476       .  S
C798       C2088   1.474       .  S
O799       Cu807   1.986       .  S
O799        C809   1.273       .  A
O800       Cu807   1.995       .  S
O800        C810   1.276       .  A
O801       Cu807   2.035       .  S
O801        C811   1.281       .  A
O802       Cu807   2.036       .  S
O802        C812   1.283       .  A
O803       Cu808   1.961       .  S
O803        C812   1.270       .  A
O804       Cu808   1.967       .  S
O804        C811   1.273       .  A
O805       Cu808   2.034       .  S
O805        C810   1.282       .  A
O806       Cu808   2.030       .  S
O806        C809   1.281       .  A
Cu807      Cu808   2.371       .  S
C809       C2130   1.473       .  S
C810       C2245   1.492       .  S
C811       C2105   1.473       .  S
C812       C3278   1.475       .  S
O813       Cu821   2.024       .  S
O813        C823   1.280       .  A
O814       Cu821   2.009       .  S
O814        C824   1.281       .  A
O815       Cu821   2.001       .  S
O815        C825   1.276       .  A
O816       Cu821   2.017       .  S
O816        C826   1.278       .  A
O817       Cu822   2.015       .  S
O817        C826   1.281       .  A
O818       Cu822   2.011       .  S
O818        C825   1.279       .  A
O819       Cu822   1.987       .  S
O819        C824   1.273       .  A
O820       Cu822   1.987       .  S
O820        C823   1.274       .  A
Cu821      Cu822   2.368       .  S
C823       C2172   1.471       .  S
C824       C2578   1.484       .  S
C825       C2060   1.481       .  S
C826       C2287   1.497       .  S
O827       Cu835   1.991       .  S
O827        C837   1.274       .  A
O828       Cu835   1.994       .  S
O828        C838   1.274       .  A
O829       Cu835   2.024       .  S
O829        C839   1.282       .  A
O830       Cu835   2.034       .  S
O830        C840   1.281       .  A
O831       Cu836   1.971       .  S
O831        C840   1.273       .  A
O832       Cu836   1.963       .  S
O832        C839   1.271       .  A
O833       Cu836   2.010       .  S
O833        C838   1.280       .  A
O834       Cu836   2.014       .  S
O834        C837   1.281       .  A
Cu835      Cu836   2.369       .  S
C837       C2046   1.491       .  S
C838       C2091   1.473       .  S
C839       C2805   1.479       .  S
C840       C2063   1.477       .  S
O841       Cu849   1.976       .  S
O841        C851   1.274       .  A
O842       Cu849   1.977       .  S
O842        C852   1.274       .  A
O843       Cu849   2.019       .  S
O843        C853   1.280       .  A
O844       Cu849   2.016       .  S
O844        C854   1.280       .  A
O845       Cu850   1.995       .  S
O845        C854   1.275       .  A
O846       Cu850   2.002       .  S
O846        C853   1.276       .  A
O847       Cu850   2.024       .  S
O847        C852   1.281       .  A
O848       Cu850   2.007       .  S
O848        C851   1.278       .  A
Cu849      Cu850   2.369       .  S
C851       C3561   1.482       .  S
C852       C2021   1.482       .  S
C853       C2004   1.484       .  S
C854       C2032   1.476       .  S
O855       Cu863   2.039       .  S
O855        C865   1.281       .  A
O856       Cu863   2.028       .  S
O856        C866   1.281       .  A
O857       Cu863   1.993       .  S
O857        C867   1.275       .  A
O858       Cu863   1.999       .  S
O858        C868   1.276       .  A
O859       Cu864   2.025       .  S
O859        C868   1.281       .  A
O860       Cu864   2.018       .  S
O860        C867   1.280       .  A
O861       Cu864   1.971       .  S
O861        C866   1.271       .  A
O862       Cu864   1.972       .  S
O862        C865   1.274       .  A
Cu863      Cu864   2.371       .  S
C865       C2035   1.479       .  S
C866       C3253   1.471       .  S
C867       C1990   1.479       .  S
C868       C1976   1.487       .  S
O869       Cu877   2.029       .  S
O869        C879   1.281       .  A
O870       Cu877   2.018       .  S
O870        C880   1.280       .  A
O871       Cu877   1.988       .  S
O871        C881   1.274       .  A
O872       Cu877   2.004       .  S
O872        C882   1.277       .  A
O873       Cu878   2.020       .  S
O873        C882   1.280       .  A
O874       Cu878   2.017       .  S
O874        C881   1.280       .  A
O875       Cu878   1.972       .  S
O875        C880   1.271       .  A
O876       Cu878   1.977       .  S
O876        C879   1.272       .  A
Cu877      Cu878   2.372       .  S
C879       C1962   1.469       .  S
C880       C3855   1.465       .  S
C881       C2018   1.472       .  S
C882       C2077   1.492       .  S
O883       Cu891   1.996       .  S
O883        C893   1.275       .  A
O884       Cu891   1.985       .  S
O884        C894   1.273       .  A
O885       Cu891   2.036       .  S
O885        C895   1.282       .  A
O886       Cu891   2.042       .  S
O886        C896   1.282       .  A
O887       Cu892   1.971       .  S
O887        C896   1.273       .  A
O888       Cu892   1.965       .  S
O888        C895   1.272       .  A
O889       Cu892   2.035       .  S
O889        C894   1.282       .  A
O890       Cu892   2.039       .  S
O890        C893   1.283       .  A
Cu891      Cu892   2.368       .  S
C893       C2147   1.489       .  S
C894       C1948   1.478       .  S
C895       C2987   1.490       .  S
C896       C1993   1.481       .  S
O897       Cu905   2.011       .  S
O897        C907   1.280       .  A
O898       Cu905   2.011       .  S
O898        C908   1.280       .  A
O899       Cu905   1.978       .  S
O899        C909   1.273       .  A
O900       Cu905   1.979       .  S
O900        C910   1.273       .  A
O901       Cu906   2.032       .  S
O901        C910   1.281       .  A
O902       Cu906   2.021       .  S
O902        C909   1.280       .  A
O903       Cu906   1.990       .  S
O903        C908   1.273       .  A
O904       Cu906   2.007       .  S
O904        C907   1.276       .  A
Cu905      Cu906   2.368       .  S
C907       C1920   1.494       .  S
C908       C1934   1.475       .  S
C909       C2872   1.484       .  S
C910       C1951   1.471       .  S
O911       Cu919   1.987       .  S
O911        C921   1.272       .  A
O912       Cu919   1.976       .  S
O912        C922   1.272       .  A
O913       Cu919   2.023       .  S
O913        C923   1.283       .  A
O914       Cu919   2.025       .  S
O914        C924   1.280       .  A
O915       Cu920   1.973       .  S
O915        C924   1.273       .  A
O916       Cu920   1.972       .  S
O916        C923   1.271       .  A
O917       Cu920   2.038       .  S
O917        C922   1.283       .  A
O918       Cu920   2.039       .  S
O918        C921   1.284       .  A
Cu919      Cu920   2.367       .  S
C921       C1906   1.494       .  S
C922       C1965   1.478       .  S
C923       C2609   1.485       .  S
C924       C1937   1.477       .  S
O925       Cu933   1.990       .  S
O925        C935   1.275       .  A
O926       Cu933   1.979       .  S
O926        C936   1.273       .  A
O927       Cu933   2.028       .  S
O927        C937   1.281       .  A
O928       Cu933   2.034       .  S
O928        C938   1.282       .  A
O929       Cu934   1.991       .  S
O929        C938   1.276       .  A
O930       Cu934   1.989       .  S
O930        C937   1.275       .  A
O931       Cu934   2.028       .  S
O931        C936   1.282       .  A
O932       Cu934   2.025       .  S
O932        C935   1.281       .  A
Cu933      Cu934   2.369       .  S
C935       C1878   1.478       .  S
C936       C2749   1.485       .  S
C937       C1892   1.477       .  S
C938       C1864   1.492       .  S
O939       Cu947   1.983       .  S
O939        C949   1.273       .  A
O940       Cu947   1.984       .  S
O940        C950   1.274       .  A
O941       Cu947   2.035       .  S
O941        C951   1.282       .  A
O942       Cu947   2.032       .  S
O942        C952   1.283       .  A
O943       Cu948   1.967       .  S
O943        C952   1.271       .  A
O944       Cu948   1.979       .  S
O944        C951   1.273       .  A
O945       Cu948   2.029       .  S
O945        C950   1.282       .  A
O946       Cu948   2.029       .  S
O946        C949   1.281       .  A
Cu947      Cu948   2.371       .  S
C949       C1850   1.474       .  S
C950       C2315   1.485       .  S
C951       C1836   1.478       .  S
C952       C3155   1.481       .  S
O953       Cu961   2.023       .  S
O953        C963   1.279       .  A
O954       Cu961   2.019       .  S
O954        C964   1.281       .  A
O955       Cu961   1.997       .  S
O955        C965   1.276       .  A
O956       Cu961   2.010       .  S
O956        C966   1.278       .  A
O957       Cu962   2.018       .  S
O957        C966   1.280       .  A
O958       Cu962   2.023       .  S
O958        C965   1.280       .  A
O959       Cu962   1.992       .  S
O959        C964   1.275       .  A
O960       Cu962   1.988       .  S
O960        C963   1.275       .  A
Cu961      Cu962   2.369       .  S
C963       C1853   1.471       .  S
C964       C2914   1.489       .  S
C965       C1881   1.485       .  S
C966       C1822   1.488       .  S
O967       Cu975   2.023       .  S
O967        C977   1.282       .  A
O968       Cu975   2.033       .  S
O968        C978   1.281       .  A
O969       Cu975   2.005       .  S
O969        C979   1.277       .  A
O970       Cu975   1.982       .  S
O970        C980   1.274       .  A
O971       Cu976   2.026       .  S
O971        C980   1.281       .  A
O972       Cu976   2.021       .  S
O972        C979   1.281       .  A
O973       Cu976   1.980       .  S
O973        C978   1.273       .  A
O974       Cu976   1.973       .  S
O974        C977   1.271       .  A
Cu975      Cu976   2.368       .  S
C977       C2525   1.483       .  S
C978       C1895   1.472       .  S
C979       C2189   1.492       .  S
C980       C1808   1.487       .  S
O981       Cu989   2.020       .  S
O981        C991   1.281       .  A
O982       Cu989   2.024       .  S
O982        C992   1.282       .  A
O983       Cu989   1.979       .  S
O983        C993   1.273       .  A
O984       Cu989   1.976       .  S
O984        C994   1.273       .  A
O985       Cu990   2.041       .  S
O985        C994   1.282       .  A
O986       Cu990   2.031       .  S
O986        C993   1.282       .  A
O987       Cu990   1.991       .  S
O987        C992   1.274       .  A
O988       Cu990   2.006       .  S
O988        C991   1.276       .  A
Cu989      Cu990   2.369       .  S
C991       C1783   1.491       .  S
C992       C1839   1.483       .  S
C993       C3687   1.487       .  S
C994       C1797   1.474       .  S
O995      Cu1003   1.999       .  S
O995       C1005   1.275       .  A
O996      Cu1003   1.995       .  S
O996       C1006   1.275       .  A
O997      Cu1003   2.016       .  S
O997       C1007   1.280       .  A
O998      Cu1003   2.025       .  S
O998       C1008   1.280       .  A
O999      Cu1004   1.981       .  S
O999       C1008   1.273       .  A
O1000     Cu1004   1.966       .  S
O1000      C1007   1.272       .  A
O1001     Cu1004   2.032       .  S
O1001      C1006   1.281       .  A
O1002     Cu1004   2.034       .  S
O1002      C1005   1.283       .  A
Cu1003    Cu1004   2.372       .  S
C1005      C1766   1.492       .  S
C1006      C1794   1.481       .  S
C1007      C3894   1.470       .  S
C1008      C1811   1.466       .  S
O1009     Cu1017   1.979       .  S
O1009      C1019   1.273       .  A
O1010     Cu1017   1.969       .  S
O1010      C1020   1.273       .  A
O1011     Cu1017   2.020       .  S
O1011      C1021   1.280       .  A
O1012     Cu1017   2.015       .  S
O1012      C1022   1.280       .  A
O1013     Cu1018   1.995       .  S
O1013      C1022   1.275       .  A
O1014     Cu1018   1.981       .  S
O1014      C1021   1.274       .  A
O1015     Cu1018   2.017       .  S
O1015      C1020   1.280       .  A
O1016     Cu1018   2.021       .  S
O1016      C1019   1.279       .  A
Cu1017    Cu1018   2.373       .  S
C1019      C1738   1.465       .  S
C1020      C2942   1.478       .  S
C1021      C1752   1.472       .  S
C1022      C2049   1.482       .  S
O1023     Cu1031   2.033       .  S
O1023      C1033   1.283       .  A
O1024     Cu1031   2.029       .  S
O1024      C1034   1.282       .  A
O1025     Cu1031   1.964       .  S
O1025      C1035   1.272       .  A
O1026     Cu1031   1.971       .  S
O1026      C1036   1.272       .  A
O1027     Cu1032   2.030       .  S
O1027      C1036   1.281       .  A
O1028     Cu1032   2.032       .  S
O1028      C1035   1.282       .  A
O1029     Cu1032   1.976       .  S
O1029      C1034   1.272       .  A
O1030     Cu1032   1.987       .  S
O1030      C1033   1.273       .  A
Cu1031    Cu1032   2.368       .  S
C1033      C1780   1.494       .  S
C1034      C1741   1.476       .  S
C1035      C2396   1.481       .  S
C1036      C1724   1.475       .  S
O1037     Cu1045   2.017       .  S
O1037      C1047   1.281       .  A
O1038     Cu1045   2.018       .  S
O1038      C1048   1.280       .  A
O1039     Cu1045   1.982       .  S
O1039      C1049   1.273       .  A
O1040     Cu1045   1.979       .  S
O1040      C1050   1.273       .  A
O1041     Cu1046   2.014       .  S
O1041      C1050   1.281       .  A
O1042     Cu1046   2.021       .  S
O1042      C1049   1.279       .  A
O1043     Cu1046   1.995       .  S
O1043      C1048   1.276       .  A
O1044     Cu1046   1.987       .  S
O1044      C1047   1.273       .  A
Cu1045    Cu1046   2.370       .  S
C1047      C1710   1.479       .  S
C1048      C1696   1.487       .  S
C1049      C1755   1.464       .  S
C1050      C3141   1.481       .  S
O1051     Cu1059   1.977       .  S
O1051      C1061   1.274       .  A
O1052     Cu1059   1.981       .  S
O1052      C1062   1.274       .  A
O1053     Cu1059   2.013       .  S
O1053      C1063   1.279       .  A
O1054     Cu1059   2.010       .  S
O1054      C1064   1.279       .  A
O1055     Cu1060   2.016       .  S
O1055      C1064   1.279       .  A
O1056     Cu1060   2.015       .  S
O1056      C1063   1.279       .  A
O1057     Cu1060   2.011       .  S
O1057      C1062   1.280       .  A
O1058     Cu1060   2.022       .  S
O1058      C1061   1.279       .  A
Cu1059    Cu1060   2.370       .  S
C1061      C1713   1.473       .  S
C1062      C3435   1.475       .  S
C1063      C1682   1.490       .  S
C1064      C1867   1.487       .  S
O1065     Cu1073   2.023       .  S
O1065      C1075   1.281       .  A
O1066     Cu1073   2.031       .  S
O1066      C1076   1.283       .  A
O1067     Cu1073   1.995       .  S
O1067      C1077   1.276       .  A
O1068     Cu1073   1.980       .  S
O1068      C1078   1.273       .  A
O1069     Cu1074   2.022       .  S
O1069      C1078   1.282       .  A
O1070     Cu1074   2.031       .  S
O1070      C1077   1.280       .  A
O1071     Cu1074   1.981       .  S
O1071      C1076   1.273       .  A
O1072     Cu1074   1.981       .  S
O1072      C1075   1.274       .  A
Cu1073    Cu1074   2.368       .  S
C1075      C1668   1.477       .  S
C1076      C2119   1.492       .  S
C1077      C1685   1.482       .  S
C1078      C3978   1.484       .  S
O1079     Cu1087   1.981       .  S
O1079      C1089   1.274       .  A
O1080     Cu1087   1.985       .  S
O1080      C1090   1.274       .  A
O1081     Cu1087   2.017       .  S
O1081      C1091   1.281       .  A
O1082     Cu1087   2.016       .  S
O1082      C1092   1.280       .  A
O1083     Cu1088   1.995       .  S
O1083      C1092   1.275       .  A
O1084     Cu1088   1.982       .  S
O1084      C1091   1.274       .  A
O1085     Cu1088   2.004       .  S
O1085      C1090   1.279       .  A
O1086     Cu1088   2.015       .  S
O1086      C1089   1.278       .  A
Cu1087    Cu1088   2.373       .  S
C1089      C1671   1.462       .  S
C1090      C2553   1.479       .  S
C1091      C1727   1.476       .  S
C1092      C1657   1.482       .  S
O1093     Cu1101   1.976       .  S
O1093      C1103   1.273       .  A
O1094     Cu1101   1.988       .  S
O1094      C1104   1.274       .  A
O1095     Cu1101   2.033       .  S
O1095      C1105   1.281       .  A
O1096     Cu1101   2.031       .  S
O1096      C1106   1.282       .  A
O1097     Cu1102   1.968       .  S
O1097      C1106   1.273       .  A
O1098     Cu1102   1.973       .  S
O1098      C1105   1.273       .  A
O1099     Cu1102   2.019       .  S
O1099      C1104   1.281       .  A
O1100     Cu1102   2.016       .  S
O1100      C1103   1.280       .  A
Cu1101    Cu1102   2.369       .  S
C1103      C1643   1.469       .  S
C1104      C1654   1.490       .  S
C1105      C1626   1.476       .  S
C1106      C2833   1.485       .  S
O1107     Cu1115   2.025       .  S
O1107      C1117   1.281       .  A
O1108     Cu1115   2.035       .  S
O1108      C1118   1.282       .  A
O1109     Cu1115   2.002       .  S
O1109      C1119   1.276       .  A
O1110     Cu1115   1.993       .  S
O1110      C1120   1.275       .  A
O1111     Cu1116   2.017       .  S
O1111      C1120   1.280       .  A
O1112     Cu1116   2.020       .  S
O1112      C1119   1.281       .  A
O1113     Cu1116   1.972       .  S
O1113      C1118   1.273       .  A
O1114     Cu1116   1.970       .  S
O1114      C1117   1.273       .  A
Cu1115    Cu1116   2.369       .  S
C1117      C3393   1.481       .  S
C1118      C1612   1.476       .  S
C1119      C1979   1.494       .  S
C1120      C1629   1.477       .  S
O1121     Cu1129   1.989       .  S
O1121      C1131   1.273       .  A
O1122     Cu1129   1.989       .  S
O1122      C1132   1.275       .  A
O1123     Cu1129   2.030       .  S
O1123      C1133   1.282       .  A
O1124     Cu1129   2.036       .  S
O1124      C1134   1.281       .  A
O1125     Cu1130   1.968       .  S
O1125      C1134   1.273       .  A
O1126     Cu1130   1.952       .  S
O1126      C1133   1.271       .  A
O1127     Cu1130   2.035       .  S
O1127      C1132   1.282       .  A
O1128     Cu1130   2.032       .  S
O1128      C1131   1.283       .  A
Cu1129    Cu1130   2.366       .  S
C1131      C1909   1.493       .  S
C1132      C1598   1.484       .  S
C1133      C2483   1.482       .  S
C1134      C1584   1.479       .  S
O1135     Cu1143   2.016       .  S
O1135      C1145   1.279       .  A
O1136     Cu1143   2.008       .  S
O1136      C1146   1.280       .  A
O1137     Cu1143   1.986       .  S
O1137      C1147   1.274       .  A
O1138     Cu1143   1.992       .  S
O1138      C1148   1.275       .  A
O1139     Cu1144   2.023       .  S
O1139      C1148   1.281       .  A
O1140     Cu1144   2.019       .  S
O1140      C1147   1.281       .  A
O1141     Cu1144   1.965       .  S
O1141      C1146   1.271       .  A
O1142     Cu1144   1.971       .  S
O1142      C1145   1.272       .  A
Cu1143    Cu1144   2.372       .  S
C1145      C1640   1.461       .  S
C1146      C3015   1.467       .  S
C1147      C1587   1.477       .  S
C1148      C1570   1.489       .  S
O1149     Cu1157   1.965       .  S
O1149      C1159   1.273       .  A
O1150     Cu1157   1.971       .  S
O1150      C1160   1.272       .  A
O1151     Cu1157   2.015       .  S
O1151      C1161   1.280       .  A
O1152     Cu1157   2.014       .  S
O1152      C1162   1.280       .  A
O1153     Cu1158   1.996       .  S
O1153      C1162   1.274       .  A
O1154     Cu1158   1.994       .  S
O1154      C1161   1.275       .  A
O1155     Cu1158   2.021       .  S
O1155      C1160   1.280       .  A
O1156     Cu1158   2.030       .  S
O1156      C1159   1.281       .  A
Cu1157    Cu1158   2.368       .  S
C1159      C1559   1.477       .  S
C1160      C3939   1.482       .  S
C1161      C1615   1.476       .  S
C1162      C1542   1.491       .  S
O1163     Cu1171   2.025       .  S
O1163      C1173   1.281       .  A
O1164     Cu1171   2.035       .  S
O1164      C1174   1.281       .  A
O1165     Cu1171   2.012       .  S
O1165      C1175   1.277       .  A
O1166     Cu1171   1.996       .  S
O1166      C1176   1.275       .  A
O1167     Cu1172   2.005       .  S
O1167      C1176   1.278       .  A
O1168     Cu1172   2.006       .  S
O1168      C1175   1.279       .  A
O1169     Cu1172   1.982       .  S
O1169      C1174   1.273       .  A
O1170     Cu1172   1.983       .  S
O1170      C1173   1.274       .  A
Cu1171    Cu1172   2.370       .  S
C1173      C3617   1.483       .  S
C1174      C1601   1.470       .  S
C1175      C1699   1.492       .  S
C1176      C1556   1.475       .  S
O1177     Cu1185   1.977       .  S
O1177      C1187   1.274       .  A
O1178     Cu1185   1.983       .  S
O1178      C1188   1.274       .  A
O1179     Cu1185   2.023       .  S
O1179      C1189   1.281       .  A
O1180     Cu1185   2.019       .  S
O1180      C1190   1.279       .  A
O1181     Cu1186   1.993       .  S
O1181      C1190   1.275       .  A
O1182     Cu1186   2.008       .  S
O1182      C1189   1.276       .  A
O1183     Cu1186   2.020       .  S
O1183      C1188   1.279       .  A
O1184     Cu1186   2.020       .  S
O1184      C1187   1.280       .  A
Cu1185    Cu1186   2.370       .  S
C1187      C3337   1.485       .  S
C1188      C1514   1.468       .  S
C1189      C1769   1.498       .  S
C1190      C1528   1.472       .  S
O1191     Cu1199   2.023       .  S
O1191      C1201   1.281       .  A
O1192     Cu1199   2.022       .  S
O1192      C1202   1.282       .  A
O1193     Cu1199   1.986       .  S
O1193      C1203   1.274       .  A
O1194     Cu1199   1.985       .  S
O1194      C1204   1.274       .  A
O1195     Cu1200   2.008       .  S
O1195      C1204   1.280       .  A
O1196     Cu1200   2.021       .  S
O1196      C1203   1.279       .  A
O1197     Cu1200   1.992       .  S
O1197      C1202   1.274       .  A
O1198     Cu1200   1.979       .  S
O1198      C1201   1.273       .  A
Cu1199    Cu1200   2.371       .  S
C1201      C1500   1.472       .  S
C1202      C1573   1.490       .  S
C1203      C1531   1.468       .  S
C1204      C3183   1.477       .  S
O1205     Cu1213   2.024       .  S
O1205      C1215   1.280       .  A
O1206     Cu1213   2.024       .  S
O1206      C1216   1.280       .  A
O1207     Cu1213   1.988       .  S
O1207      C1217   1.275       .  A
O1208     Cu1213   1.984       .  S
O1208      C1218   1.274       .  A
O1209     Cu1214   2.026       .  S
O1209      C1218   1.280       .  A
O1210     Cu1214   2.030       .  S
O1210      C1217   1.281       .  A
O1211     Cu1214   1.981       .  S
O1211      C1216   1.274       .  A
O1212     Cu1214   1.973       .  S
O1212      C1215   1.273       .  A
Cu1213    Cu1214   2.369       .  S
C1215      C2774   1.483       .  S
C1216      C1489   1.473       .  S
C1217      C1475   1.493       .  S
C1218      C1517   1.473       .  S
O1219     Cu1227   1.981       .  S
O1219      C1229   1.272       .  A
O1220     Cu1227   1.977       .  S
O1220      C1230   1.273       .  A
O1221     Cu1227   2.014       .  S
O1221      C1231   1.280       .  A
O1222     Cu1227   2.014       .  S
O1222      C1232   1.281       .  A
O1223     Cu1228   1.988       .  S
O1223      C1232   1.274       .  A
O1224     Cu1228   1.997       .  S
O1224      C1231   1.275       .  A
O1225     Cu1228   2.028       .  S
O1225      C1230   1.280       .  A
O1226     Cu1228   2.026       .  S
O1226      C1229   1.281       .  A
Cu1227    Cu1228   2.372       .  S
C1229      C2679   1.472       .  S
C1230      C1458   1.467       .  S
C1231      C1545   1.482       .  S
C1232      C1486   1.482       .  S
O1233     Cu1241   2.031       .  S
O1233      C1243   1.281       .  A
O1234     Cu1241   2.029       .  S
O1234      C1244   1.281       .  A
O1235     Cu1241   1.964       .  S
O1235      C1245   1.272       .  A
O1236     Cu1241   1.976       .  S
O1236      C1246   1.273       .  A
O1237     Cu1242   2.030       .  S
O1237      C1246   1.281       .  A
O1238     Cu1242   2.025       .  S
O1238      C1245   1.281       .  A
O1239     Cu1242   1.987       .  S
O1239      C1244   1.275       .  A
O1240     Cu1242   1.995       .  S
O1240      C1243   1.276       .  A
Cu1241    Cu1242   2.368       .  S
C1243      C1825   1.498       .  S
C1244      C1461   1.481       .  S
C1245      C2455   1.475       .  S
C1246      C1444   1.479       .  S
O1247     Cu1255   1.974       .  S
O1247      C1257   1.273       .  A
O1248     Cu1255   1.972       .  S
O1248      C1258   1.274       .  A
O1249     Cu1255   2.018       .  S
O1249      C1259   1.279       .  A
O1250     Cu1255   2.014       .  S
O1250      C1260   1.280       .  A
O1251     Cu1256   1.998       .  S
O1251      C1260   1.275       .  A
O1252     Cu1256   2.009       .  S
O1252      C1259   1.278       .  A
O1253     Cu1256   2.029       .  S
O1253      C1258   1.281       .  A
O1254     Cu1256   2.019       .  S
O1254      C1257   1.280       .  A
Cu1255    Cu1256   2.367       .  S
C1257      C3659   1.486       .  S
C1258      C1503   1.480       .  S
C1259      C1430   1.495       .  S
C1260      C1447   1.476       .  S
O1261     Cu1269   2.019       .  S
O1261      C1271   1.280       .  A
O1262     Cu1269   2.011       .  S
O1262      C1272   1.279       .  A
O1263     Cu1269   1.987       .  S
O1263      C1273   1.275       .  A
O1264     Cu1269   1.983       .  S
O1264      C1274   1.275       .  A
O1265     Cu1270   2.020       .  S
O1265      C1274   1.278       .  A
O1266     Cu1270   2.010       .  S
O1266      C1273   1.279       .  A
O1267     Cu1270   2.002       .  S
O1267      C1272   1.277       .  A
O1268     Cu1270   2.005       .  S
O1268      C1271   1.278       .  A
Cu1269    Cu1270   2.368       .  S
C1271      C2231   1.492       .  S
C1272      C1416   1.490       .  S
C1273      C2651   1.484       .  S
C1274      C1402   1.471       .  S
O1275     Cu1283   2.010       .  S
O1275      C1285   1.279       .  A
O1276     Cu1283   2.013       .  S
O1276      C1286   1.279       .  A
O1277     Cu1283   1.981       .  S
O1277      C1287   1.274       .  A
O1278     Cu1283   1.983       .  S
O1278      C1288   1.274       .  A
O1279     Cu1284   2.004       .  S
O1279      C1288   1.279       .  A
O1280     Cu1284   2.019       .  S
O1280      C1287   1.279       .  A
O1281     Cu1284   2.003       .  S
O1281      C1286   1.277       .  A
O1282     Cu1284   1.986       .  S
O1282      C1285   1.274       .  A
Cu1283    Cu1284   2.373       .  S
C1285      C1388   1.473       .  S
C1286      C1472   1.482   1_565  S
C1287      C1377   1.467       .  S
C1288      C3057   1.478       .  S
O1289     Cu1297   2.031       .  S
O1289      C1299   1.282       .  A
O1290     Cu1297   2.023       .  S
O1290      C1300   1.280       .  A
O1291     Cu1297   1.979       .  S
O1291      C1301   1.273       .  A
O1292     Cu1297   1.972       .  S
O1292      C1302   1.272       .  A
O1293     Cu1298   2.031       .  S
O1293      C1302   1.283       .  A
O1294     Cu1298   2.030       .  S
O1294      C1301   1.280       .  A
O1295     Cu1298   1.982       .  S
O1295      C1300   1.273       .  A
O1296     Cu1298   1.988       .  S
O1296      C1299   1.275       .  A
Cu1297    Cu1298   2.370       .  S
C1299      C2007   1.492       .  S
C1300      C1374   1.471       .  S
C1301      C1419   1.468       .  S
C1302      C2427   1.487       .  S
O1303     Cu1311   1.979       .  S
O1303      C1313   1.274       .  A
O1304     Cu1311   1.971       .  S
O1304      C1314   1.272       .  A
O1305     Cu1311   2.016       .  S
O1305      C1315   1.281       .  A
O1306     Cu1311   2.024       .  S
O1306      C1316   1.281       .  A
O1307     Cu1312   2.001       .  S
O1307      C1316   1.277       .  A
O1308     Cu1312   1.994       .  S
O1308      C1315   1.275       .  A
O1309     Cu1312   2.018       .  S
O1309      C1314   1.281       .  A
O1310     Cu1312   2.029       .  S
O1310      C1313   1.280       .  A
Cu1311    Cu1312   2.369       .  S
C1313      C1360   1.475       .  S
C1314      C3813   1.481       .  S
C1315      C1405   1.481       .  S
C1316      C1433   1.491       .  S
O1317     Cu1325   1.963       .  S
O1317      C1327   1.273       .  A
O1318     Cu1325   1.965       .  S
O1318      C1328   1.271       .  A
O1319     Cu1325   2.023       .  S
O1319      C1329   1.281       .  A
O1320     Cu1325   2.025       .  S
O1320      C1330   1.282       .  A
O1321     Cu1326   1.997       .  S
O1321      C1330   1.275       .  A
O1322     Cu1326   1.991       .  S
O1322      C1329   1.275       .  A
O1323     Cu1326   2.024       .  S
O1323      C1328   1.281       .  A
O1324     Cu1326   2.028       .  S
O1324      C1327   1.281       .  A
Cu1325    Cu1326   2.370       .  S
C1327      C1391   1.474       .  S
C1328      C3222   1.471       .  S
C1329      C1346   1.479       .  S
C1330      C2203   1.494       .  S
O1331     Cu1339   2.023       .  S
O1331      C1341   1.281       .  A
O1332     Cu1339   2.030       .  S
O1332      C1342   1.281       .  A
O1333     Cu1339   1.978       .  S
O1333      C1343   1.274       .  A
O1334     Cu1339   1.973       .  S
O1334      C1344   1.271       .  A
O1335     Cu1340   2.016       .  S
O1335      C1344   1.281       .  A
O1336     Cu1340   2.025       .  S
O1336      C1343   1.280       .  A
O1337     Cu1340   1.992       .  S
O1337      C1342   1.274       .  A
O1338     Cu1340   1.988       .  S
O1338      C1341   1.274       .  A
Cu1339    Cu1340   2.369       .  S
C1341      C1363   1.481       .  S
C1342      C1923   1.486       .  S
C1343      C1349   1.476       .  S
C1344      C3348   1.482       .  S
C1345      C1346   1.408       .  A
C1345      C1350   1.408       .  A
C1345      H1352   1.084       .  S
C1346      C1347   1.410       .  A
C1347      C1348   1.401       .  A
C1347      N1354   1.438       .  S
C1348      C1349   1.405       .  A
C1348      H1353   1.083       .  S
C1349      C1350   1.408       .  A
C1350      N1351   1.437       .  S
N1351      H1355   1.046       .  S
N1351      H1356   1.045       .  S
N1354      H1357   1.045       .  S
N1354      H1358   1.046       .  S
C1359      C1360   1.405       .  A
C1359      C1364   1.403       .  A
C1359      H1366   1.084       .  S
C1360      C1361   1.409       .  A
C1361      C1362   1.401       .  A
C1361      N1368   1.432       .  S
C1362      C1363   1.409       .  A
C1362      H1367   1.084       .  S
C1363      C1364   1.411       .  A
C1364      N1365   1.438       .  S
N1365      H1369   1.045       .  S
N1365      H1370   1.045       .  S
N1368      H1371   1.046       .  S
N1368      H1372   1.045       .  S
C1373      C1374   1.403       .  A
C1373      C1378   1.407       .  A
C1373      H1380   1.084       .  S
C1374      C1375   1.414       .  A
C1375      C1376   1.394       .  A
C1375      N1382   1.433       .  S
C1376      C1377   1.399       .  A
C1376      H1381   1.084       .  S
C1377      C1378   1.412       .  A
C1378      N1379   1.438       .  S
N1379      H1383   1.046       .  S
N1379      H1384   1.045       .  S
N1382      H1385   1.045       .  S
N1382      H1386   1.044       .  S
C1387      C1388   1.408       .  A
C1387      C1392   1.408       .  A
C1387      H1394   1.084       .  S
C1388      C1389   1.408       .  A
C1389      C1390   1.397       .  A
C1389      N1396   1.439       .  S
C1390      C1391   1.405       .  A
C1390      H1395   1.084       .  S
C1391      C1392   1.408       .  A
C1392      N1393   1.437       .  S
N1393      H1397   1.046       .  S
N1393      H1398   1.046       .  S
N1396      H1399   1.045       .  S
N1396      H1400   1.046       .  S
C1401      C1402   1.399       .  A
C1401      C1406   1.405       .  A
C1401      H1408   1.084       .  S
C1402      C1403   1.412       .  A
C1403      C1404   1.401       .  A
C1403      N1410   1.439       .  S
C1404      C1405   1.402       .  A
C1404      H1409   1.083       .  S
C1405      C1406   1.415       .  A
C1406      N1407   1.432       .  S
N1407      H1411   1.046       .  S
N1407      H1412   1.046       .  S
N1410      H1413   1.046       .  S
N1410      H1414   1.046       .  S
C1415      C1416   1.413       .  A
C1415      C1420   1.408       .  A
C1415      H1422   1.083       .  S
C1416      C1417   1.416       .  A
C1417      C1418   1.402       .  A
C1417      N1424   1.438       .  S
C1418      C1419   1.400       .  A
C1418      H1423   1.084       .  S
C1419      C1420   1.403       .  A
C1420      N1421   1.437       .  S
N1421      H1425   1.046       .  S
N1421      H1426   1.046       .  S
N1424      H1427   1.046       .  S
N1424      H1428   1.046       .  S
C1429      C1430   1.410       .  A
C1429      C1434   1.409       .  A
C1429      H1436   1.083       .  S
C1430      C1431   1.418       .  A
C1431      C1432   1.399       .  A
C1431      N1438   1.433       .  S
C1432      C1433   1.407       .  A
C1432      H1437   1.084       .  S
C1433      C1434   1.412       .  A
C1434      N1435   1.438       .  S
N1435      H1439   1.045       .  S
N1435      H1440   1.046       .  S
N1438      H1441   1.046       .  S
N1438      H1442   1.044       .  S
C1443      C1444   1.402       .  A
C1443      C1448   1.408       .  A
C1443      H1450   1.084       .  S
C1444      C1445   1.416       .  A
C1445      C1446   1.401       .  A
C1445      N1452   1.439       .  S
C1446      C1447   1.399       .  A
C1446      H1451   1.084       .  S
C1447      C1448   1.414       .  A
C1448      N1449   1.438       .  S
N1449      H1453   1.046       .  S
N1449      H1454   1.046       .  S
N1452      H1455   1.046       .  S
N1452      H1456   1.046       .  S
C1457      C1458   1.403       .  A
C1457      C1462   1.408       .  A
C1457      H1464   1.084       .  S
C1458      C1459   1.412       .  A
C1459      C1460   1.398       .  A
C1459      N1466   1.439       .  S
C1460      C1461   1.405       .  A
C1460      H1465   1.084       .  S
C1461      C1462   1.413       .  A
C1462      N1463   1.438       .  S
N1463      H1467   1.046       .  S
N1463      H1468   1.045       .  S
N1466      H1469   1.044       .  S
N1466      H1470   1.046       .  S
C1471      C1472   1.405       .  A
C1471      C1476   1.407       .  A
C1471      H1478   1.084       .  S
C1472      C1473   1.408       .  A
C1473      C1474   1.405       .  A
C1473      N1480   1.438   1_545  S
C1474      C1475   1.411       .  A
C1474      H1479   1.083       .  S
C1475      C1476   1.416       .  A
C1476      N1477   1.438       .  S
N1477      H1481   1.045       .  S
N1477      H1482   1.046       .  S
N1480      H1483   1.045       .  S
N1480      H1484   1.046       .  S
C1485      C1486   1.402       .  A
C1485      C1490   1.397       .  A
C1485      H1492   1.084       .  S
C1486      C1487   1.419       .  A
C1487      C1488   1.407       .  A
C1487      N1494   1.438       .  S
C1488      C1489   1.400       .  A
C1488      H1493   1.084       .  S
C1489      C1490   1.410       .  A
C1490      N1491   1.433       .  S
N1491      H1495   1.046       .  S
N1491      H1496   1.046       .  S
N1494      H1497   1.046       .  S
N1494      H1498   1.046       .  S
C1499      C1500   1.407       .  A
C1499      C1504   1.407       .  A
C1499      H1506   1.084       .  S
C1500      C1501   1.406       .  A
C1501      C1502   1.400       .  A
C1501      N1508   1.438       .  S
C1502      C1503   1.408       .  A
C1502      H1507   1.084       .  S
C1503      C1504   1.410       .  A
C1504      N1505   1.437       .  S
N1505      H1509   1.046       .  S
N1505      H1510   1.046       .  S
N1508      H1511   1.045       .  S
N1508      H1512   1.046       .  S
C1513      C1514   1.404       .  A
C1513      C1518   1.407       .  A
C1513      H1520   1.084       .  S
C1514      C1515   1.414       .  A
C1515      C1516   1.398       .  A
C1515      N1522   1.440       .  S
C1516      C1517   1.403       .  A
C1516      H1521   1.084       .  S
C1517      C1518   1.410       .  A
C1518      N1519   1.438       .  S
N1519      H1523   1.046       .  S
N1519      H1524   1.045       .  S
N1522      H1525   1.044       .  S
N1522      H1526   1.046       .  S
C1527      C1528   1.404       .  A
C1527      C1532   1.405       .  A
C1527      H1534   1.084       .  S
C1528      C1529   1.413       .  A
C1529      C1530   1.398       .  A
C1529      N1536   1.433       .  S
C1530      C1531   1.402       .  A
C1530      H1535   1.084       .  S
C1531      C1532   1.409       .  A
C1532      N1533   1.438       .  S
N1533      H1537   1.046       .  S
N1533      H1538   1.045       .  S
N1536      H1539   1.046       .  S
N1536      H1540   1.045       .  S
C1541      C1542   1.406       .  A
C1541      C1546   1.397       .  A
C1541      H1548   1.084       .  S
C1542      C1543   1.423       .  A
C1543      C1544   1.399   1_455  A
C1543      N1550   1.432       .  S
C1544      C1545   1.402       .  A
C1544      H1549   1.084       .  S
C1545      C1546   1.417   1_655  A
C1546      N1547   1.433       .  S
N1547      H1551   1.045   1_455  S
N1547      H1552   1.046       .  S
N1550      H1553   1.044       .  S
N1550      H1554   1.046       .  S
C1555      C1556   1.409       .  A
C1555      C1560   1.410       .  A
C1555      H1562   1.084       .  S
C1556      C1557   1.411       .  A
C1557      C1558   1.389       .  A
C1557      N1564   1.433       .  S
C1558      C1559   1.405       .  A
C1558      H1563   1.084       .  S
C1559      C1560   1.410       .  A
C1560      N1561   1.437       .  S
N1561      H1565   1.045       .  S
N1561      H1566   1.046       .  S
N1564      H1567   1.047       .  S
N1564      H1568   1.043       .  S
C1569      C1570   1.403       .  A
C1569      C1574   1.407       .  A
C1569      H1576   1.083       .  S
C1570      C1571   1.419       .  A
C1571      C1572   1.404       .  A
C1571      N1578   1.439       .  S
C1572      C1573   1.403       .  A
C1572      H1577   1.083       .  S
C1573      C1574   1.420       .  A
C1574      N1575   1.438       .  S
N1575      H1579   1.046       .  S
N1575      H1580   1.045       .  S
N1578      H1581   1.045       .  S
N1578      H1582   1.046       .  S
C1583      C1584   1.407       .  A
C1583      C1588   1.400       .  A
C1583      H1590   1.084       .  S
C1584      C1585   1.412       .  A
C1585      C1586   1.402       .  A
C1585      N1592   1.432       .  S
C1586      C1587   1.409       .  A
C1586      H1591   1.084       .  S
C1587      C1588   1.408       .  A
C1588      N1589   1.439       .  S
N1589      H1593   1.046       .  S
N1589      H1594   1.046       .  S
N1592      H1595   1.045       .  S
N1592      H1596   1.045       .  S
C1597      C1598   1.407       .  A
C1597      C1602   1.404       .  A
C1597      H1604   1.084       .  S
C1598      C1599   1.414       .  A
C1599      C1600   1.410       .  A
C1599      N1606   1.437       .  S
C1600      C1601   1.403       .  A
C1600      H1605   1.084       .  S
C1601      C1602   1.405       .  A
C1602      N1603   1.438       .  S
N1603      H1607   1.046       .  S
N1603      H1608   1.046       .  S
N1606      H1609   1.045       .  S
N1606      H1610   1.046       .  S
C1611      C1612   1.405       .  A
C1611      C1616   1.397       .  A
C1611      H1618   1.084       .  S
C1612      C1613   1.409       .  A
C1613      C1614   1.410       .  A
C1613      N1620   1.437       .  S
C1614      C1615   1.408       .  A
C1614      H1619   1.084       .  S
C1615      C1616   1.406       .  A
C1616      N1617   1.433       .  S
N1617      H1621   1.046       .  S
N1617      H1622   1.046       .  S
N1620      H1623   1.046       .  S
N1620      H1624   1.046       .  S
C1625      C1626   1.401       .  A
C1625      C1630   1.409       .  A
C1625      H1632   1.084       .  S
C1626      C1627   1.416       .  A
C1627      C1628   1.400       .  A
C1627      N1634   1.439       .  S
C1628      C1629   1.399       .  A
C1628      H1633   1.084       .  S
C1629      C1630   1.416       .  A
C1630      N1631   1.438       .  S
N1631      H1635   1.046       .  S
N1631      H1636   1.046       .  S
N1634      H1637   1.046       .  S
N1634      H1638   1.046       .  S
C1639      C1640   1.402       .  A
C1639      C1644   1.404       .  A
C1639      H1646   1.084       .  S
C1640      C1641   1.407       .  A
C1641      C1642   1.399       .  A
C1641      N1648   1.439       .  S
C1642      C1643   1.404       .  A
C1642      H1647   1.084       .  S
C1643      C1644   1.409       .  A
C1644      N1645   1.438       .  S
N1645      H1649   1.046       .  S
N1645      H1650   1.046       .  S
N1648      H1651   1.045       .  S
N1648      H1652   1.046       .  S
C1653      C1654   1.405       .  A
C1653      C1658   1.404       .  A
C1653      H1660   1.083       .  S
C1654      C1655   1.419       .  A
C1655      C1656   1.405   1_554  A
C1655      N1662   1.438       .  S
C1656      C1657   1.401       .  A
C1656      H1661   1.084       .  S
C1657      C1658   1.415   1_556  A
C1658      N1659   1.439       .  S
N1659      H1663   1.046       .  S
N1659      H1664   1.046       .  S
N1662      H1665   1.046       .  S
N1662      H1666   1.046   1_554  S
C1667      C1668   1.406       .  A
C1667      C1672   1.401       .  A
C1667      H1674   1.084       .  S
C1668      C1669   1.412       .  A
C1669      C1670   1.405       .  A
C1669      N1676   1.438       .  S
C1670      C1671   1.402       .  A
C1670      H1675   1.084       .  S
C1671      C1672   1.405       .  A
C1672      N1673   1.438       .  S
N1673      H1677   1.046       .  S
N1673      H1678   1.045       .  S
N1676      H1679   1.046       .  S
N1676      H1680   1.046       .  S
C1681      C1682   1.409       .  A
C1681      C1686   1.411       .  A
C1681      H1688   1.083       .  S
C1682      C1683   1.415       .  A
C1683      C1684   1.404       .  A
C1683      N1690   1.438       .  S
C1684      C1685   1.403       .  A
C1684      H1689   1.084       .  S
C1685      C1686   1.410       .  A
C1686      N1687   1.437       .  S
N1687      H1691   1.046       .  S
N1687      H1692   1.045       .  S
N1690      H1693   1.046       .  S
N1690      H1694   1.045       .  S
C1695      C1696   1.404       .  A
C1695      C1700   1.409       .  A
C1695      H1702   1.084       .  S
C1696      C1697   1.416       .  A
C1697      C1698   1.403       .  A
C1697      N1704   1.439       .  S
C1698      C1699   1.405       .  A
C1698      H1703   1.083       .  S
C1699      C1700   1.418       .  A
C1700      N1701   1.438       .  S
N1701      H1705   1.046       .  S
N1701      H1706   1.046       .  S
N1704      H1707   1.046       .  S
N1704      H1708   1.045       .  S
C1709      C1710   1.400       .  A
C1709      C1714   1.398       .  A
C1709      H1716   1.084       .  S
C1710      C1711   1.421       .  A
C1711      C1712   1.402       .  A
C1711      N1718   1.433       .  S
C1712      C1713   1.400       .  A
C1712      H1717   1.084       .  S
C1713      C1714   1.412       .  A
C1714      N1715   1.438       .  S
N1715      H1719   1.045       .  S
N1715      H1720   1.045       .  S
N1718      H1721   1.046       .  S
N1718      H1722   1.044       .  S
C1723      C1724   1.399       .  A
C1723      C1728   1.403       .  A
C1723      H1730   1.084       .  S
C1724      C1725   1.417       .  A
C1725      C1726   1.401       .  A
C1725      N1732   1.439       .  S
C1726      C1727   1.399       .  A
C1726      H1731   1.084       .  S
C1727      C1728   1.414       .  A
C1728      N1729   1.433       .  S
N1729      H1733   1.046       .  S
N1729      H1734   1.046       .  S
N1732      H1735   1.046       .  S
N1732      H1736   1.046       .  S
C1737      C1738   1.398       .  A
C1737      C1742   1.402       .  A
C1737      H1744   1.084       .  S
C1738      C1739   1.409       .  A
C1739      C1740   1.405       .  A
C1739      N1746   1.438       .  S
C1740      C1741   1.403       .  A
C1740      H1745   1.084       .  S
C1741      C1742   1.416       .  A
C1742      N1743   1.439       .  S
N1743      H1747   1.046       .  S
N1743      H1748   1.045       .  S
N1746      H1749   1.045       .  S
N1746      H1750   1.046       .  S
C1751      C1752   1.404       .  A
C1751      C1756   1.401       .  A
C1751      H1758   1.084       .  S
C1752      C1753   1.414       .  A
C1753      C1754   1.400       .  A
C1753      N1760   1.433       .  S
C1754      C1755   1.402       .  A
C1754      H1759   1.084       .  S
C1755      C1756   1.406       .  A
C1756      N1757   1.438       .  S
N1757      H1761   1.046       .  S
N1757      H1762   1.045       .  S
N1760      H1763   1.046       .  S
N1760      H1764   1.044       .  S
C1765      C1766   1.403       .  A
C1765      C1770   1.402   1_556  A
C1765      H1772   1.084       .  S
C1766      C1767   1.421   1_556  A
C1767      C1768   1.401       .  A
C1767      N1774   1.433       .  S
C1768      C1769   1.406       .  A
C1768      H1773   1.084       .  S
C1769      C1770   1.424       .  A
C1770      N1771   1.432       .  S
N1771      H1775   1.045       .  S
N1771      H1776   1.045       .  S
N1774      H1777   1.046       .  S
N1774      H1778   1.045       .  S
C1779      C1780   1.405       .  A
C1779      C1784   1.409       .  A
C1779      H1786   1.083       .  S
C1780      C1781   1.421       .  A
C1781      C1782   1.405   1_455  A
C1781      N1788   1.439       .  S
C1782      C1783   1.402       .  A
C1782      H1787   1.084       .  S
C1783      C1784   1.417   1_655  A
C1784      N1785   1.438       .  S
N1785      H1789   1.046       .  S
N1785      H1790   1.045       .  S
N1788      H1791   1.046       .  S
N1788      H1792   1.046   1_455  S
C1793      C1794   1.406       .  A
C1793      C1798   1.411       .  A
C1793      H1800   1.084       .  S
C1794      C1795   1.413       .  A
C1795      C1796   1.403       .  A
C1795      N1802   1.438       .  S
C1796      C1797   1.401       .  A
C1796      H1801   1.084       .  S
C1797      C1798   1.411       .  A
C1798      N1799   1.438       .  S
N1799      H1803   1.046       .  S
N1799      H1804   1.046       .  S
N1802      H1805   1.045       .  S
N1802      H1806   1.046       .  S
C1807      C1808   1.411       .  A
C1807      C1812   1.401       .  A
C1807      H1814   1.084       .  S
C1808      C1809   1.414       .  A
C1809      C1810   1.404       .  A
C1809      N1816   1.438       .  S
C1810      C1811   1.401       .  A
C1810      H1815   1.085       .  S
C1811      C1812   1.410       .  A
C1812      N1813   1.439       .  S
N1813      H1817   1.046       .  S
N1813      H1818   1.043       .  S
N1816      H1819   1.046       .  S
N1816      H1820   1.046       .  S
C1821      C1822   1.405       .  A
C1821      C1826   1.402       .  A
C1821      H1828   1.084       .  S
C1822      C1823   1.410       .  A
C1823      C1824   1.407       .  A
C1823      N1830   1.438       .  S
C1824      C1825   1.411       .  A
C1824      H1829   1.083       .  S
C1825      C1826   1.420       .  A
C1826      N1827   1.432       .  S
N1827      H1831   1.045       .  S
N1827      H1832   1.045       .  S
N1830      H1833   1.046       .  S
N1830      H1834   1.046       .  S
C1835      C1836   1.401       .  A
C1835      C1840   1.410       .  A
C1835      H1842   1.084       .  S
C1836      C1837   1.412       .  A
C1837      C1838   1.399       .  A
C1837      N1844   1.433       .  S
C1838      C1839   1.401       .  A
C1838      H1843   1.084       .  S
C1839      C1840   1.419       .  A
C1840      N1841   1.438       .  S
N1841      H1845   1.046       .  S
N1841      H1846   1.046       .  S
N1844      H1847   1.046       .  S
N1844      H1848   1.046       .  S
C1849      C1850   1.403       .  A
C1849      C1854   1.402       .  A
C1849      H1856   1.084       .  S
C1850      C1851   1.413       .  A
C1851      C1852   1.402       .  A
C1851      N1858   1.432       .  S
C1852      C1853   1.404       .  A
C1852      H1857   1.084       .  S
C1853      C1854   1.408       .  A
C1854      N1855   1.438       .  S
N1855      H1859   1.046       .  S
N1855      H1860   1.046       .  S
N1858      H1861   1.046       .  S
N1858      H1862   1.045       .  S
C1863      C1864   1.409       .  A
C1863      C1868   1.406       .  A
C1863      H1870   1.083       .  S
C1864      C1865   1.411       .  A
C1865      C1866   1.406       .  A
C1865      N1872   1.432       .  S
C1866      C1867   1.406       .  A
C1866      H1871   1.084       .  S
C1867      C1868   1.412       .  A
C1868      N1869   1.438       .  S
N1869      H1873   1.046       .  S
N1869      H1874   1.046       .  S
N1872      H1875   1.046       .  S
N1872      H1876   1.046       .  S
C1877      C1878   1.400       .  A
C1877      C1882   1.407       .  A
C1877      H1884   1.084       .  S
C1878      C1879   1.411       .  A
C1879      C1880   1.403       .  A
C1879      N1886   1.433       .  S
C1880      C1881   1.404       .  A
C1880      H1885   1.084       .  S
C1881      C1882   1.418       .  A
C1882      N1883   1.438       .  S
N1883      H1887   1.046       .  S
N1883      H1888   1.046       .  S
N1886      H1889   1.046       .  S
N1886      H1890   1.046       .  S
C1891      C1892   1.403       .  A
C1891      C1896   1.410       .  A
C1891      H1898   1.084       .  S
C1892      C1893   1.410       .  A
C1893      C1894   1.400       .  A
C1893      N1900   1.433       .  S
C1894      C1895   1.400       .  A
C1894      H1899   1.084       .  S
C1895      C1896   1.413       .  A
C1896      N1897   1.438       .  S
N1897      H1901   1.046       .  S
N1897      H1902   1.046       .  S
N1900      H1903   1.045       .  S
N1900      H1904   1.046       .  S
C1905      C1906   1.403       .  A
C1905      C1910   1.401   1_565  A
C1905      H1912   1.084       .  S
C1906      C1907   1.424   1_565  A
C1907      C1908   1.400       .  A
C1907      N1914   1.433       .  S
C1908      C1909   1.402       .  A
C1908      H1913   1.084       .  S
C1909      C1910   1.424       .  A
C1910      N1911   1.433       .  S
N1911      H1915   1.046       .  S
N1911      H1916   1.045       .  S
N1914      H1917   1.045       .  S
N1914      H1918   1.046       .  S
C1919      C1920   1.405       .  A
C1919      C1924   1.396       .  A
C1919      H1926   1.084       .  S
C1920      C1921   1.423       .  A
C1921      C1922   1.403       .  A
C1921      N1928   1.432       .  S
C1922      C1923   1.403       .  A
C1922      H1927   1.084       .  S
C1923      C1924   1.418       .  A
C1924      N1925   1.433       .  S
N1925      H1929   1.045       .  S
N1925      H1930   1.046       .  S
N1928      H1931   1.045       .  S
N1928      H1932   1.045       .  S
C1933      C1934   1.398       .  A
C1933      C1938   1.398       .  A
C1933      H1940   1.084       .  S
C1934      C1935   1.418       .  A
C1935      C1936   1.402       .  A
C1935      N1942   1.433       .  S
C1936      C1937   1.402       .  A
C1936      H1941   1.084       .  S
C1937      C1938   1.417       .  A
C1938      N1939   1.439       .  S
N1939      H1943   1.046       .  S
N1939      H1944   1.046       .  S
N1942      H1945   1.045       .  S
N1942      H1946   1.045       .  S
C1947      C1948   1.404       .  A
C1947      C1952   1.409       .  A
C1947      H1954   1.084       .  S
C1948      C1949   1.414       .  A
C1949      C1950   1.403       .  A
C1949      N1956   1.439       .  S
C1950      C1951   1.400       .  A
C1950      H1955   1.084       .  S
C1951      C1952   1.410       .  A
C1952      N1953   1.438       .  S
N1953      H1957   1.046       .  S
N1953      H1958   1.046       .  S
N1956      H1959   1.045       .  S
N1956      H1960   1.046       .  S
C1961      C1962   1.399       .  A
C1961      C1966   1.403       .  A
C1961      H1968   1.084       .  S
C1962      C1963   1.411       .  A
C1963      C1964   1.408       .  A
C1963      N1970   1.438       .  S
C1964      C1965   1.402       .  A
C1964      H1969   1.084       .  S
C1965      C1966   1.415       .  A
C1966      N1967   1.439       .  S
N1967      H1971   1.046       .  S
N1967      H1972   1.046       .  S
N1970      H1973   1.045       .  S
N1970      H1974   1.046       .  S
C1975      C1976   1.403       .  A
C1975      C1980   1.409       .  A
C1975      H1982   1.084       .  S
C1976      C1977   1.416       .  A
C1977      C1978   1.405       .  A
C1977      N1984   1.439       .  S
C1978      C1979   1.405       .  A
C1978      H1983   1.083       .  S
C1979      C1980   1.420       .  A
C1980      N1981   1.438       .  S
N1981      H1985   1.046       .  S
N1981      H1986   1.046       .  S
N1984      H1987   1.046       .  S
N1984      H1988   1.046       .  S
C1989      C1990   1.409       .  A
C1989      C1994   1.410       .  A
C1989      H1996   1.084       .  S
C1990      C1991   1.409       .  A
C1991      C1992   1.400       .  A
C1991      N1998   1.439       .  S
C1992      C1993   1.407       .  A
C1992      H1997   1.084       .  S
C1993      C1994   1.409       .  A
C1994      N1995   1.437       .  S
N1995      H1999   1.046       .  S
N1995      H2000   1.046       .  S
N1998      H2001   1.045       .  S
N1998      H2002   1.046       .  S
C2003      C2004   1.407       .  A
C2003      C2008   1.408   1_455  A
C2003      H2010   1.083       .  S
C2004      C2005   1.407       .  A
C2005      C2006   1.402       .  A
C2005      N2012   1.433       .  S
C2006      C2007   1.410   1_455  A
C2006      H2011   1.083       .  S
C2007      C2008   1.415       .  A
C2008      N2009   1.437       .  S
N2009      H2013   1.046       .  S
N2009      H2014   1.046       .  S
N2012      H2015   1.046       .  S
N2012      H2016   1.046       .  S
C2017      C2018   1.405       .  A
C2017      C2022   1.407       .  A
C2017      H2024   1.084       .  S
C2018      C2019   1.407       .  A
C2019      C2020   1.400       .  A
C2019      N2026   1.439       .  S
C2020      C2021   1.408       .  A
C2020      H2025   1.083       .  S
C2021      C2022   1.412       .  A
C2022      N2023   1.437       .  S
N2023      H2027   1.046       .  S
N2023      H2028   1.046       .  S
N2026      H2029   1.045       .  S
N2026      H2030   1.046       .  S
C2031      C2032   1.408       .  A
C2031      C2036   1.404       .  A
C2031      H2038   1.084       .  S
C2032      C2033   1.408       .  A
C2033      C2034   1.400       .  A
C2033      N2040   1.439       .  S
C2034      C2035   1.406       .  A
C2034      H2039   1.084       .  S
C2035      C2036   1.412       .  A
C2036      N2037   1.432       .  S
N2037      H2041   1.045       .  S
N2037      H2042   1.046       .  S
N2040      H2043   1.046       .  S
N2040      H2044   1.046       .  S
C2045      C2046   1.405       .  A
C2045      C2050   1.397   1_565  A
C2045      H2052   1.084       .  S
C2046      C2047   1.424   1_565  A
C2047      C2048   1.399       .  A
C2047      N2054   1.432       .  S
C2048      C2049   1.401       .  A
C2048      H2053   1.084       .  S
C2049      C2050   1.418       .  A
C2050      N2051   1.433       .  S
N2051      H2055   1.045       .  S
N2051      H2056   1.045       .  S
N2054      H2057   1.045       .  S
N2054      H2058   1.045       .  S
C2059      C2060   1.408       .  A
C2059      C2064   1.401       .  A
C2059      H2066   1.084       .  S
C2060      C2061   1.412       .  A
C2061      C2062   1.402       .  A
C2061      N2068   1.439       .  S
C2062      C2063   1.405       .  A
C2062      H2067   1.084       .  S
C2063      C2064   1.410       .  A
C2064      N2065   1.432       .  S
N2065      H2069   1.046       .  S
N2065      H2070   1.045       .  S
N2068      H2071   1.045       .  S
N2068      H2072   1.046       .  S
C2073      C2074   1.407   1_554  A
C2073      C2078   1.402       .  A
C2073      H2080   1.084       .  S
C2074      C2075   1.413       .  A
C2075      C2076   1.409   1_556  A
C2075      N2082   1.438       .  S
C2076      C2077   1.410       .  A
C2076      H2081   1.083       .  S
C2077      C2078   1.411       .  A
C2078      N2079   1.432       .  S
N2079      H2083   1.046       .  S
N2079      H2084   1.046       .  S
N2082      H2085   1.046       .  S
N2082      H2086   1.046       .  S
C2087      C2088   1.402       .  A
C2087      C2092   1.408       .  A
C2087      H2094   1.084       .  S
C2088      C2089   1.412       .  A
C2089      C2090   1.395       .  A
C2089      N2096   1.433       .  S
C2090      C2091   1.397       .  A
C2090      H2095   1.084       .  S
C2091      C2092   1.413       .  A
C2092      N2093   1.432       .  S
N2093      H2097   1.046       .  S
N2093      H2098   1.046       .  S
N2096      H2099   1.045       .  S
N2096      H2100   1.046       .  S
C2101      C2102   1.412       .  A
C2101      C2106   1.409       .  A
C2101      H2108   1.083       .  S
C2102      C2103   1.411       .  A
C2103      C2104   1.400       .  A
C2103      N2110   1.438       .  S
C2104      C2105   1.404       .  A
C2104      H2109   1.084       .  S
C2105      C2106   1.405       .  A
C2106      N2107   1.437       .  S
N2107      H2111   1.046       .  S
N2107      H2112   1.045       .  S
N2110      H2113   1.045       .  S
N2110      H2114   1.046       .  S
C2115      C2116   1.400       .  A
C2115      C2120   1.405       .  A
C2115      H2122   1.084       .  S
C2116      C2117   1.416       .  A
C2117      C2118   1.407       .  A
C2117      N2124   1.438       .  S
C2118      C2119   1.405       .  A
C2118      H2123   1.083       .  S
C2119      C2120   1.421       .  A
C2120      N2121   1.438       .  S
N2121      H2125   1.046       .  S
N2121      H2126   1.046       .  S
N2124      H2127   1.046       .  S
N2124      H2128   1.046       .  S
C2129      C2130   1.402       .  A
C2129      C2134   1.409       .  A
C2129      H2136   1.083       .  S
C2130      C2131   1.413       .  A
C2131      C2132   1.396       .  A
C2131      N2138   1.434       .  S
C2132      C2133   1.403       .  A
C2132      H2137   1.084       .  S
C2133      C2134   1.412       .  A
C2134      N2135   1.438       .  S
N2135      H2139   1.046       .  S
N2135      H2140   1.046       .  S
N2138      H2141   1.046       .  S
N2138      H2142   1.044       .  S
C2143      C2144   1.405       .  A
C2143      C2148   1.407       .  A
C2143      H2150   1.083       .  S
C2144      C2145   1.422       .  A
C2145      C2146   1.411       .  A
C2145      N2152   1.438       .  S
C2146      C2147   1.402       .  A
C2146      H2151   1.084       .  S
C2147      C2148   1.416       .  A
C2148      N2149   1.439       .  S
N2149      H2153   1.046       .  S
N2149      H2154   1.046       .  S
N2152      H2155   1.046       .  S
N2152      H2156   1.046       .  S
C2157      C2158   1.404       .  A
C2157      C2162   1.403       .  A
C2157      H2164   1.084       .  S
C2158      C2159   1.405       .  A
C2159      C2160   1.411       .  A
C2159      N2166   1.437       .  S
C2160      C2161   1.413       .  A
C2160      H2165   1.083       .  S
C2161      C2162   1.413       .  A
C2162      N2163   1.438       .  S
N2163      H2167   1.046       .  S
N2163      H2168   1.046       .  S
N2166      H2169   1.045       .  S
N2166      H2170   1.046       .  S
C2171      C2172   1.399       .  A
C2171      C2176   1.404       .  A
C2171      H2178   1.084       .  S
C2172      C2173   1.420       .  A
C2173      C2174   1.403       .  A
C2173      N2180   1.439       .  S
C2174      C2175   1.402       .  A
C2174      H2179   1.084       .  S
C2175      C2176   1.414       .  A
C2176      N2177   1.438       .  S
N2177      H2181   1.046       .  S
N2177      H2182   1.046       .  S
N2180      H2183   1.042       .  S
N2180      H2184   1.046       .  S
C2185      C2186   1.409   1_545  A
C2185      C2190   1.401       .  A
C2185      H2192   1.084       .  S
C2186      C2187   1.417       .  A
C2187      C2188   1.405   1_565  A
C2187      N2194   1.432       .  S
C2188      C2189   1.410       .  A
C2188      H2193   1.083       .  S
C2189      C2190   1.410       .  A
C2190      N2191   1.432       .  S
N2191      H2195   1.046       .  S
N2191      H2196   1.046       .  S
N2194      H2197   1.045       .  S
N2194      H2198   1.045       .  S
C2199      C2200   1.403       .  A
C2199      C2204   1.408       .  A
C2199      H2206   1.084       .  S
C2200      C2201   1.420       .  A
C2201      C2202   1.399       .  A
C2201      N2208   1.433       .  S
C2202      C2203   1.404       .  A
C2202      H2207   1.084       .  S
C2203      C2204   1.421       .  A
C2204      N2205   1.438       .  S
N2205      H2209   1.046       .  S
N2205      H2210   1.046       .  S
N2208      H2211   1.045       .  S
N2208      H2212   1.045       .  S
C2213      C2214   1.403       .  A
C2213      C2218   1.403       .  A
C2213      H2220   1.085       .  S
C2214      C2215   1.411       .  A
C2215      C2216   1.399       .  A
C2215      N2222   1.439       .  S
C2216      C2217   1.407       .  A
C2216      H2221   1.084       .  S
C2217      C2218   1.409       .  A
C2218      N2219   1.432       .  S
N2219      H2223   1.046       .  S
N2219      H2224   1.046       .  S
N2222      H2225   1.044       .  S
N2222      H2226   1.046       .  S
C2227      C2228   1.407   1_554  A
C2227      C2232   1.405       .  A
C2227      H2234   1.084       .  S
C2228      C2229   1.413       .  A
C2229      C2230   1.407   1_556  A
C2229      N2236   1.438       .  S
C2230      C2231   1.408       .  A
C2230      H2235   1.083       .  S
C2231      C2232   1.412       .  A
C2232      N2233   1.432       .  S
N2233      H2237   1.046       .  S
N2233      H2238   1.046       .  S
N2236      H2239   1.046       .  S
N2236      H2240   1.046       .  S
C2241      C2242   1.409       .  A
C2241      C2246   1.409       .  A
C2241      H2248   1.083       .  S
C2242      C2243   1.413       .  A
C2243      C2244   1.406       .  A
C2243      N2250   1.438       .  S
C2244      C2245   1.408       .  A
C2244      H2249   1.083       .  S
C2245      C2246   1.412       .  A
C2246      N2247   1.438       .  S
N2247      H2251   1.046       .  S
N2247      H2252   1.046       .  S
N2250      H2253   1.046       .  S
N2250      H2254   1.045       .  S
C2255      C2256   1.407       .  A
C2255      C2260   1.400       .  A
C2255      H2262   1.083       .  S
C2256      C2257   1.410       .  A
C2257      C2258   1.409       .  A
C2257      N2264   1.437       .  S
C2258      C2259   1.407       .  A
C2258      H2263   1.084       .  S
C2259      C2260   1.408       .  A
C2260      N2261   1.439       .  S
N2261      H2265   1.046       .  S
N2261      H2266   1.045       .  S
N2264      H2267   1.045       .  S
N2264      H2268   1.046       .  S
C2269      C2270   1.407       .  A
C2269      C2274   1.402       .  A
C2269      H2276   1.084       .  S
C2270      C2271   1.409       .  A
C2271      C2272   1.399       .  A
C2271      N2278   1.438       .  S
C2272      C2273   1.406       .  A
C2272      H2277   1.084       .  S
C2273      C2274   1.413       .  A
C2274      N2275   1.432       .  S
N2275      H2279   1.045       .  S
N2275      H2280   1.046       .  S
N2278      H2281   1.045       .  S
N2278      H2282   1.046       .  S
C2283      C2284   1.403       .  A
C2283      C2288   1.414   1_655  A
C2283      H2290   1.083       .  S
C2284      C2285   1.414   1_655  A
C2285      C2286   1.402       .  A
C2285      N2292   1.439       .  S
C2286      C2287   1.405       .  A
C2286      H2291   1.083       .  S
C2287      C2288   1.421       .  A
C2288      N2289   1.437       .  S
N2289      H2293   1.046   1_455  S
N2289      H2294   1.046       .  S
N2292      H2295   1.046   1_455  S
N2292      H2296   1.046       .  S
C2297      C2298   1.399       .  A
C2297      C2302   1.400       .  A
C2297      H2304   1.084       .  S
C2298      C2299   1.416       .  A
C2299      C2300   1.400       .  A
C2299      N2306   1.439       .  S
C2300      C2301   1.400       .  A
C2300      H2305   1.084       .  S
C2301      C2302   1.421       .  A
C2302      N2303   1.433       .  S
N2303      H2307   1.044       .  S
N2303      H2308   1.046       .  S
N2306      H2309   1.046       .  S
N2306      H2310   1.046       .  S
C2311      C2312   1.410       .  A
C2311      C2316   1.407       .  A
C2311      H2318   1.083       .  S
C2312      C2313   1.410       .  A
C2313      C2314   1.402       .  A
C2313      N2320   1.433       .  S
C2314      C2315   1.408       .  A
C2314      H2319   1.084       .  S
C2315      C2316   1.410       .  A
C2316      N2317   1.438       .  S
N2317      H2321   1.046       .  S
N2317      H2322   1.046       .  S
N2320      H2323   1.046       .  S
N2320      H2324   1.046       .  S
C2325      C2326   1.401       .  A
C2325      C2330   1.403       .  A
C2325      H2332   1.084       .  S
C2326      C2327   1.410       .  A
C2327      C2328   1.407       .  A
C2327      N2334   1.438       .  S
C2328      C2329   1.403       .  A
C2328      H2333   1.082       .  S
C2329      C2330   1.412       .  A
C2330      N2331   1.439       .  S
N2331      H2335   1.046       .  S
N2331      H2336   1.045       .  S
N2334      H2337   1.046       .  S
N2334      H2338   1.046       .  S
C2339      C2340   1.402       .  A
C2339      C2344   1.406       .  A
C2339      H2346   1.084       .  S
C2340      C2341   1.406       .  A
C2341      C2342   1.406       .  A
C2341      N2348   1.438       .  S
C2342      C2343   1.408       .  A
C2342      H2347   1.084       .  S
C2343      C2344   1.412       .  A
C2344      N2345   1.438       .  S
N2345      H2349   1.046       .  S
N2345      H2350   1.046       .  S
N2348      H2351   1.045       .  S
N2348      H2352   1.046       .  S
C2353      C2354   1.410       .  A
C2353      C2358   1.401       .  A
C2353      H2360   1.083       .  S
C2354      C2355   1.416       .  A
C2355      C2356   1.393       .  A
C2355      N2362   1.433       .  S
C2356      C2357   1.405       .  A
C2356      H2361   1.084       .  S
C2357      C2358   1.408       .  A
C2358      N2359   1.438       .  S
N2359      H2363   1.046       .  S
N2359      H2364   1.046       .  S
N2362      H2365   1.045       .  S
N2362      H2366   1.045       .  S
C2367      C2368   1.401       .  A
C2367      C2372   1.393       .  A
C2367      H2374   1.084       .  S
C2368      C2369   1.417       .  A
C2369      C2370   1.403       .  A
C2369      N2376   1.433       .  S
C2370      C2371   1.401       .  A
C2370      H2375   1.084       .  S
C2371      C2372   1.421       .  A
C2372      N2373   1.433       .  S
N2373      H2377   1.045       .  S
N2373      H2378   1.046       .  S
N2376      H2379   1.046       .  S
N2376      H2380   1.046       .  S
C2381      C2382   1.397       .  A
C2381      C2386   1.401       .  A
C2381      H2388   1.084       .  S
C2382      C2383   1.410       .  A
C2383      C2384   1.401       .  A
C2383      N2390   1.439       .  S
C2384      C2385   1.404       .  A
C2384      H2389   1.083       .  S
C2385      C2386   1.416       .  A
C2386      N2387   1.433       .  S
N2387      H2391   1.046       .  S
N2387      H2392   1.046       .  S
N2390      H2393   1.046       .  S
N2390      H2394   1.046       .  S
C2395      C2396   1.408       .  A
C2395      C2400   1.401       .  A
C2395      H2402   1.084       .  S
C2396      C2397   1.411       .  A
C2397      C2398   1.399       .  A
C2397      N2404   1.432       .  S
C2398      C2399   1.411       .  A
C2398      H2403   1.083       .  S
C2399      C2400   1.412       .  A
C2400      N2401   1.438       .  S
N2401      H2405   1.046       .  S
N2401      H2406   1.046       .  S
N2404      H2407   1.046       .  S
N2404      H2408   1.044       .  S
C2409      C2410   1.397       .  A
C2409      C2414   1.408       .  A
C2409      H2416   1.084       .  S
C2410      C2411   1.410       .  A
C2411      C2412   1.392       .  A
C2411      N2418   1.434       .  S
C2412      C2413   1.403       .  A
C2412      H2417   1.084       .  S
C2413      C2414   1.422       .  A
C2414      N2415   1.438       .  S
N2415      H2419   1.046       .  S
N2415      H2420   1.046       .  S
N2418      H2421   1.045       .  S
N2418      H2422   1.045       .  S
C2423      C2424   1.397       .  A
C2423      C2428   1.403       .  A
C2423      H2430   1.084       .  S
C2424      C2425   1.413       .  A
C2425      C2426   1.404       .  A
C2425      N2432   1.439       .  S
C2426      C2427   1.404       .  A
C2426      H2431   1.083       .  S
C2427      C2428   1.421       .  A
C2428      N2429   1.438       .  S
N2429      H2433   1.046       .  S
N2429      H2434   1.046       .  S
N2432      H2435   1.046       .  S
N2432      H2436   1.046       .  S
C2437      C2438   1.400       .  A
C2437      C2442   1.406       .  A
C2437      H2444   1.084       .  S
C2438      C2439   1.419       .  A
C2439      C2440   1.403       .  A
C2439      N2446   1.439       .  S
C2440      C2441   1.404       .  A
C2440      H2445   1.084       .  S
C2441      C2442   1.416       .  A
C2442      N2443   1.438       .  S
N2443      H2447   1.046   1_655  S
N2443      H2448   1.045       .  S
N2446      H2449   1.042       .  S
N2446      H2450   1.045       .  S
C2451      C2452   1.412       .  A
C2451      C2456   1.404       .  A
C2451      H2458   1.083       .  S
C2452      C2453   1.416       .  A
C2453      C2454   1.392       .  A
C2453      N2460   1.433       .  S
C2454      C2455   1.405       .  A
C2454      H2459   1.084       .  S
C2455      C2456   1.407       .  A
C2456      N2457   1.438       .  S
N2457      H2461   1.045       .  S
N2457      H2462   1.046       .  S
N2460      H2463   1.045       .  S
N2460      H2464   1.045       .  S
C2465      C2466   1.408       .  A
C2465      C2470   1.406       .  A
C2465      H2472   1.083       .  S
C2466      C2467   1.412       .  A
C2467      C2468   1.403       .  A
C2467      N2474   1.438       .  S
C2468      C2469   1.405       .  A
C2468      H2473   1.084       .  S
C2469      C2470   1.409       .  A
C2470      N2471   1.438       .  S
N2471      H2475   1.046       .  S
N2471      H2476   1.045       .  S
N2474      H2477   1.046       .  S
N2474      H2478   1.046       .  S
C2479      C2480   1.405       .  A
C2479      C2484   1.403       .  A
C2479      H2486   1.084       .  S
C2480      C2481   1.404       .  A
C2481      C2482   1.398       .  A
C2481      N2488   1.439       .  S
C2482      C2483   1.412       .  A
C2482      H2487   1.083       .  S
C2483      C2484   1.412       .  A
C2484      N2485   1.438       .  S
N2485      H2489   1.046       .  S
N2485      H2490   1.046       .  S
N2488      H2491   1.046       .  S
N2488      H2492   1.046       .  S
C2493      C2494   1.404       .  A
C2493      C2498   1.401       .  A
C2493      H2500   1.084       .  S
C2494      C2495   1.409       .  A
C2495      C2496   1.399       .  A
C2495      N2502   1.438       .  S
C2496      C2497   1.401       .  A
C2496      H2501   1.084       .  S
C2497      C2498   1.412       .  A
C2498      N2499   1.432       .  S
N2499      H2503   1.045       .  S
N2499      H2504   1.046       .  S
N2502      H2505   1.046       .  S
N2502      H2506   1.046       .  S
C2507      C2508   1.410       .  A
C2507      C2512   1.407       .  A
C2507      H2514   1.083       .  S
C2508      C2509   1.412       .  A
C2509      C2510   1.403       .  A
C2509      N2516   1.438       .  S
C2510      C2511   1.404       .  A
C2510      H2515   1.084       .  S
C2511      C2512   1.407       .  A
C2512      N2513   1.437       .  S
N2513      H2517   1.046       .  S
N2513      H2518   1.045       .  S
N2516      H2519   1.046       .  S
N2516      H2520   1.046       .  S
C2521      C2522   1.400       .  A
C2521      C2526   1.405       .  A
C2521      H2528   1.083       .  S
C2522      C2523   1.416       .  A
C2523      C2524   1.398       .  A
C2523      N2530   1.433       .  S
C2524      C2525   1.400       .  A
C2524      H2529   1.084       .  S
C2525      C2526   1.421       .  A
C2526      N2527   1.439       .  S
N2527      H2531   1.046       .  S
N2527      H2532   1.046       .  S
N2530      H2533   1.046       .  S
N2530      H2534   1.046       .  S
C2535      C2536   1.407       .  A
C2535      C2540   1.407       .  A
C2535      H2542   1.084       .  S
C2536      C2537   1.414   1_655  A
C2537      C2538   1.399   1_545  A
C2537      N2544   1.433   1_545  S
C2538      C2539   1.409   1_465  A
C2538      H2543   1.083       .  S
C2539      C2540   1.415       .  A
C2540      N2541   1.438       .  S
N2541      H2545   1.046   1_655  S
N2541      H2546   1.046       .  S
N2544      H2547   1.044   1_455  S
N2544      H2548   1.046   1_565  S
C2549      C2550   1.408       .  A
C2549      C2554   1.393       .  A
C2549      H2556   1.084       .  S
C2550      C2551   1.411       .  A
C2551      C2552   1.408       .  A
C2551      N2558   1.437       .  S
C2552      C2553   1.410       .  A
C2552      H2557   1.083       .  S
C2553      C2554   1.406       .  A
C2554      N2555   1.433       .  S
N2555      H2559   1.046       .  S
N2555      H2560   1.046       .  S
N2558      H2561   1.046       .  S
N2558      H2562   1.046       .  S
C2563      C2564   1.405       .  A
C2563      C2568   1.395       .  A
C2563      H2570   1.084       .  S
C2564      C2565   1.412       .  A
C2565      C2566   1.410       .  A
C2565      N2572   1.437       .  S
C2566      C2567   1.404       .  A
C2566      H2571   1.084       .  S
C2567      C2568   1.413       .  A
C2568      N2569   1.440       .  S
N2569      H2573   1.046       .  S
N2569      H2574   1.042       .  S
N2572      H2575   1.045       .  S
N2572      H2576   1.046       .  S
C2577      C2578   1.402       .  A
C2577      C2582   1.397       .  A
C2577      H2584   1.083       .  S
C2578      C2579   1.421       .  A
C2579      C2580   1.407       .  A
C2579      N2586   1.438       .  S
C2580      C2581   1.399       .  A
C2580      H2585   1.084       .  S
C2581      C2582   1.413       .  A
C2582      N2583   1.440       .  S
N2583      H2587   1.046       .  S
N2583      H2588   1.046       .  S
N2586      H2589   1.046       .  S
N2586      H2590   1.046       .  S
C2591      C2592   1.411       .  A
C2591      C2596   1.412       .  A
C2591      H2598   1.084       .  S
C2592      C2593   1.411       .  A
C2593      C2594   1.392       .  A
C2593      N2600   1.432       .  S
C2594      C2595   1.406       .  A
C2594      H2599   1.084       .  S
C2595      C2596   1.408       .  A
C2596      N2597   1.437       .  S
N2597      H2601   1.046       .  S
N2597      H2602   1.046       .  S
N2600      H2603   1.044       .  S
N2600      H2604   1.045       .  S
C2605      C2606   1.399       .  A
C2605      C2610   1.406       .  A
C2605      H2612   1.084       .  S
C2606      C2607   1.412       .  A
C2607      C2608   1.399       .  A
C2607      N2614   1.439       .  S
C2608      C2609   1.402       .  A
C2608      H2613   1.083       .  S
C2609      C2610   1.422       .  A
C2610      N2611   1.438       .  S
N2611      H2615   1.046       .  S
N2611      H2616   1.046       .  S
N2614      H2617   1.046       .  S
N2614      H2618   1.046       .  S
C2619      C2620   1.409   1_565  A
C2619      C2624   1.407   1_565  A
C2619      H2626   1.083       .  S
C2620      C2621   1.412       .  A
C2621      C2622   1.403       .  A
C2621      N2628   1.432       .  S
C2622      C2623   1.406       .  A
C2622      H2627   1.084       .  S
C2623      C2624   1.411       .  A
C2624      N2625   1.438   1_545  S
N2625      H2629   1.045       .  S
N2625      H2630   1.046   1_455  S
N2628      H2631   1.046       .  S
N2628      H2632   1.046       .  S
C2633      C2634   1.396       .  A
C2633      C2638   1.398       .  A
C2633      H2640   1.085       .  S
C2634      C2635   1.412       .  A
C2635      C2636   1.409       .  A
C2635      N2642   1.437       .  S
C2636      C2637   1.404       .  A
C2636      H2641   1.083       .  S
C2637      C2638   1.417       .  A
C2638      N2639   1.433       .  S
N2639      H2643   1.045       .  S
N2639      H2644   1.046       .  S
N2642      H2645   1.046       .  S
N2642      H2646   1.046       .  S
C2647      C2648   1.406       .  A
C2647      C2652   1.400       .  A
C2647      H2654   1.083       .  S
C2648      C2649   1.415       .  A
C2649      C2650   1.399       .  A
C2649      N2656   1.433       .  S
C2650      C2651   1.409       .  A
C2650      H2655   1.084       .  S
C2651      C2652   1.412       .  A
C2652      N2653   1.438       .  S
N2653      H2657   1.045       .  S
N2653      H2658   1.046       .  S
N2656      H2659   1.046       .  S
N2656      H2660   1.045       .  S
C2661      C2662   1.406       .  A
C2661      C2666   1.409       .  A
C2661      H2668   1.084       .  S
C2662      C2663   1.411   1_565  A
C2663      C2664   1.395   1_545  A
C2663      N2670   1.433       .  S
C2664      C2665   1.407       .  A
C2664      H2669   1.084   1_565  S
C2665      C2666   1.411       .  A
C2666      N2667   1.437       .  S
N2667      H2671   1.046       .  S
N2667      H2672   1.046       .  S
N2670      H2673   1.046       .  S
N2670      H2674   1.045       .  S
C2675      C2676   1.402       .  A
C2675      C2680   1.398       .  A
C2675      H2682   1.084       .  S
C2676      C2677   1.418       .  A
C2677      C2678   1.402       .  A
C2677      N2684   1.433       .  S
C2678      C2679   1.398       .  A
C2678      H2683   1.084       .  S
C2679      C2680   1.416       .  A
C2680      N2681   1.433       .  S
N2681      H2685   1.044       .  S
N2681      H2686   1.046       .  S
N2684      H2687   1.046       .  S
N2684      H2688   1.046   1_655  S
C2689      C2690   1.401       .  A
C2689      C2694   1.398       .  A
C2689      H2696   1.083       .  S
C2690      C2691   1.424       .  A
C2691      C2692   1.405       .  A
C2691      N2698   1.432       .  S
C2692      C2693   1.401       .  A
C2692      H2697   1.084       .  S
C2693      C2694   1.413       .  A
C2694      N2695   1.439       .  S
N2695      H2699   1.046       .  S
N2695      H2700   1.046       .  S
N2698      H2701   1.046       .  S
N2698      H2702   1.044       .  S
C2703      C2704   1.403       .  A
C2703      C2708   1.404       .  A
C2703      H2710   1.084       .  S
C2704      C2705   1.408       .  A
C2705      C2706   1.405       .  A
C2705      N2712   1.438       .  S
C2706      C2707   1.403       .  A
C2706      H2711   1.084       .  S
C2707      C2708   1.410       .  A
C2708      N2709   1.438       .  S
N2709      H2713   1.046   1_554  S
N2709      H2714   1.045       .  S
N2712      H2715   1.045       .  S
N2712      H2716   1.046       .  S
C2717      C2718   1.403       .  A
C2717      C2722   1.400       .  A
C2717      H2724   1.083       .  S
C2718      C2719   1.420       .  A
C2719      C2720   1.408       .  A
C2719      N2726   1.438       .  S
C2720      C2721   1.399       .  A
C2720      H2725   1.084       .  S
C2721      C2722   1.413       .  A
C2722      N2723   1.440       .  S
N2723      H2727   1.046       .  S
N2723      H2728   1.046       .  S
N2726      H2729   1.046       .  S
N2726      H2730   1.046       .  S
C2731      C2732   1.406       .  A
C2731      C2736   1.401       .  A
C2731      H2738   1.084       .  S
C2732      C2733   1.413   1_554  A
C2733      C2734   1.407       .  A
C2733      N2740   1.438       .  S
C2734      C2735   1.409       .  A
C2734      H2739   1.083       .  S
C2735      C2736   1.410   1_556  A
C2736      N2737   1.432       .  S
N2737      H2741   1.046       .  S
N2737      H2742   1.045   1_545  S
N2740      H2743   1.045       .  S
N2740      H2744   1.046       .  S
C2745      C2746   1.398       .  A
C2745      C2750   1.403       .  A
C2745      H2752   1.084       .  S
C2746      C2747   1.413       .  A
C2747      C2748   1.405       .  A
C2747      N2754   1.438       .  S
C2748      C2749   1.404       .  A
C2748      H2753   1.083       .  S
C2749      C2750   1.419       .  A
C2750      N2751   1.438       .  S
N2751      H2755   1.046       .  S
N2751      H2756   1.046       .  S
N2754      H2757   1.046       .  S
N2754      H2758   1.046       .  S
C2759      C2760   1.409       .  A
C2759      C2764   1.401       .  A
C2759      H2766   1.084       .  S
C2760      C2761   1.411       .  A
C2761      C2762   1.400       .  A
C2761      N2768   1.432       .  S
C2762      C2763   1.408       .  A
C2762      H2767   1.084       .  S
C2763      C2764   1.408       .  A
C2764      N2765   1.438       .  S
N2765      H2769   1.046   1_556  S
N2765      H2770   1.045       .  S
N2768      H2771   1.045       .  S
N2768      H2772   1.046       .  S
C2773      C2774   1.410       .  A
C2773      C2778   1.396       .  A
C2773      H2780   1.084       .  S
C2774      C2775   1.417       .  A
C2775      C2776   1.397       .  A
C2775      N2782   1.432       .  S
C2776      C2777   1.403       .  A
C2776      H2781   1.084       .  S
C2777      C2778   1.408       .  A
C2778      N2779   1.433       .  S
N2779      H2783   1.045       .  S
N2779      H2784   1.046       .  S
N2782      H2785   1.042       .  S
N2782      H2786   1.048       .  S
C2787      C2788   1.409       .  A
C2787      C2792   1.400       .  A
C2787      H2794   1.084       .  S
C2788      C2789   1.415       .  A
C2789      C2790   1.405       .  A
C2789      N2796   1.438       .  S
C2790      C2791   1.400       .  A
C2790      H2795   1.084       .  S
C2791      C2792   1.407       .  A
C2792      N2793   1.433       .  S
N2793      H2797   1.046       .  S
N2793      H2798   1.046       .  S
N2796      H2799   1.046       .  S
N2796      H2800   1.046       .  S
C2801      C2802   1.395       .  A
C2801      C2806   1.401       .  A
C2801      H2808   1.084       .  S
C2802      C2803   1.414       .  A
C2803      C2804   1.401       .  A
C2803      N2810   1.439       .  S
C2804      C2805   1.402       .  A
C2804      H2809   1.083       .  S
C2805      C2806   1.420       .  A
C2806      N2807   1.438       .  S
N2807      H2811   1.046       .  S
N2807      H2812   1.046       .  S
N2810      H2813   1.045       .  S
N2810      H2814   1.046       .  S
C2815      C2816   1.404       .  A
C2815      C2820   1.398       .  A
C2815      H2822   1.085       .  S
C2816      C2817   1.405       .  A
C2817      C2818   1.407       .  A
C2817      N2824   1.437       .  S
C2818      C2819   1.410       .  A
C2818      H2823   1.084       .  S
C2819      C2820   1.410       .  A
C2820      N2821   1.439       .  S
N2821      H2825   1.046       .  S
N2821      H2826   1.046   1_565  S
N2824      H2827   1.045       .  S
N2824      H2828   1.046       .  S
C2829      C2830   1.410       .  A
C2829      C2834   1.405       .  A
C2829      H2836   1.083       .  S
C2830      C2831   1.409       .  A
C2831      C2832   1.402       .  A
C2831      N2838   1.438       .  S
C2832      C2833   1.410       .  A
C2832      H2837   1.083       .  S
C2833      C2834   1.411       .  A
C2834      N2835   1.438       .  S
N2835      H2839   1.046       .  S
N2835      H2840   1.045       .  S
N2838      H2841   1.046       .  S
N2838      H2842   1.046       .  S
C2843      C2844   1.409       .  A
C2843      C2848   1.409       .  A
C2843      H2850   1.083       .  S
C2844      C2845   1.409   1_554  A
C2845      C2846   1.403       .  A
C2845      N2852   1.432       .  S
C2846      C2847   1.408       .  A
C2846      H2851   1.083       .  S
C2847      C2848   1.414   1_556  A
C2848      N2849   1.438       .  S
N2849      H2853   1.046       .  S
N2849      H2854   1.046       .  S
N2852      H2855   1.046       .  S
N2852      H2856   1.045       .  S
C2857      C2858   1.405       .  A
C2857      C2862   1.398       .  A
C2857      H2864   1.084       .  S
C2858      C2859   1.411       .  A
C2859      C2860   1.406       .  A
C2859      N2866   1.438       .  S
C2860      C2861   1.403       .  A
C2860      H2865   1.084       .  S
C2861      C2862   1.412       .  A
C2862      N2863   1.439       .  S
N2863      H2867   1.046       .  S
N2863      H2868   1.044       .  S
N2866      H2869   1.045       .  S
N2866      H2870   1.046       .  S
C2871      C2872   1.411       .  A
C2871      C2876   1.406       .  A
C2871      H2878   1.083       .  S
C2872      C2873   1.412       .  A
C2873      C2874   1.393       .  A
C2873      N2880   1.433       .  S
C2874      C2875   1.409       .  A
C2874      H2879   1.084       .  S
C2875      C2876   1.410       .  A
C2876      N2877   1.438       .  S
N2877      H2881   1.046       .  S
N2877      H2882   1.046       .  S
N2880      H2883   1.046       .  S
N2880      H2884   1.044       .  S
C2885      C2886   1.399       .  A
C2885      C2890   1.393       .  A
C2885      H2892   1.084       .  S
C2886      C2887   1.420       .  A
C2887      C2888   1.409       .  A
C2887      N2894   1.438       .  S
C2888      C2889   1.399       .  A
C2888      H2893   1.084       .  S
C2889      C2890   1.409       .  A
C2890      N2891   1.434       .  S
N2891      H2895   1.046       .  S
N2891      H2896   1.046       .  S
N2894      H2897   1.046       .  S
N2894      H2898   1.046       .  S
C2899      C2900   1.403       .  A
C2899      C2904   1.400       .  A
C2899      H2906   1.084       .  S
C2900      C2901   1.409       .  A
C2901      C2902   1.408       .  A
C2901      N2908   1.438       .  S
C2902      C2903   1.404       .  A
C2902      H2907   1.084       .  S
C2903      C2904   1.415       .  A
C2904      N2905   1.439       .  S
N2905      H2909   1.046   1_554  S
N2905      H2910   1.044       .  S
N2908      H2911   1.046       .  S
N2908      H2912   1.046       .  S
C2913      C2914   1.405       .  A
C2913      C2918   1.398       .  A
C2913      H2920   1.084       .  S
C2914      C2915   1.419       .  A
C2915      C2916   1.406       .  A
C2915      N2922   1.438       .  S
C2916      C2917   1.400       .  A
C2916      H2921   1.084       .  S
C2917      C2918   1.417       .  A
C2918      N2919   1.433       .  S
N2919      H2923   1.046       .  S
N2919      H2924   1.045       .  S
N2922      H2925   1.046       .  S
N2922      H2926   1.046       .  S
C2927      C2928   1.408       .  A
C2927      C2932   1.404       .  A
C2927      H2934   1.083       .  S
C2928      C2929   1.413       .  A
C2929      C2930   1.407       .  A
C2929      N2936   1.437       .  S
C2930      C2931   1.407       .  A
C2930      H2935   1.083       .  S
C2931      C2932   1.413       .  A
C2932      N2933   1.438       .  S
N2933      H2937   1.046       .  S
N2933      H2938   1.046       .  S
N2936      H2939   1.046       .  S
N2936      H2940   1.046       .  S
C2941      C2942   1.407       .  A
C2941      C2946   1.394       .  A
C2941      H2948   1.084       .  S
C2942      C2943   1.409       .  A
C2943      C2944   1.401       .  A
C2943      N2950   1.438       .  S
C2944      C2945   1.410       .  A
C2944      H2949   1.083       .  S
C2945      C2946   1.413       .  A
C2946      N2947   1.432       .  S
N2947      H2951   1.045       .  S
N2947      H2952   1.045       .  S
N2950      H2953   1.045       .  S
N2950      H2954   1.046       .  S
C2955      C2956   1.408   1_565  A
C2955      C2960   1.404   1_565  A
C2955      H2962   1.083       .  S
C2956      C2957   1.409       .  A
C2957      C2958   1.401       .  A
C2957      N2964   1.432       .  S
C2958      C2959   1.407       .  A
C2958      H2963   1.084       .  S
C2959      C2960   1.411       .  A
C2960      N2961   1.438   1_545  S
N2961      H2965   1.046       .  S
N2961      H2966   1.046       .  S
N2964      H2967   1.046       .  S
N2964      H2968   1.046       .  S
C2969      C2970   1.405       .  A
C2969      C2974   1.396       .  A
C2969      H2976   1.084       .  S
C2970      C2971   1.411       .  A
C2971      C2972   1.400       .  A
C2971      N2978   1.432       .  S
C2972      C2973   1.407       .  A
C2972      H2977   1.084       .  S
C2973      C2974   1.410       .  A
C2974      N2975   1.439       .  S
N2975      H2979   1.045       .  S
N2975      H2980   1.045       .  S
N2978      H2981   1.046       .  S
N2978      H2982   1.045       .  S
C2983      C2984   1.406       .  A
C2983      C2988   1.398       .  A
C2983      H2990   1.084       .  S
C2984      C2985   1.408       .  A
C2985      C2986   1.403       .  A
C2985      N2992   1.439       .  S
C2986      C2987   1.413       .  A
C2986      H2991   1.083       .  S
C2987      C2988   1.416       .  A
C2988      N2989   1.432       .  S
N2989      H2993   1.045       .  S
N2989      H2994   1.045       .  S
N2992      H2995   1.046       .  S
N2992      H2996   1.045       .  S
C2997      C2998   1.404       .  A
C2997      C3002   1.402       .  A
C2997      H3004   1.083       .  S
C2998      C2999   1.418       .  A
C2999      C3000   1.406       .  A
C2999      N3006   1.438       .  S
C3000      C3001   1.402       .  A
C3000      H3005   1.084       .  S
C3001      C3002   1.416       .  A
C3002      N3003   1.439       .  S
N3003      H3007   1.046       .  S
N3003      H3008   1.046   1_545  S
N3006      H3009   1.046       .  S
N3006      H3010   1.045       .  S
C3011      C3012   1.411       .  A
C3011      C3016   1.397       .  A
C3011      H3018   1.083       .  S
C3012      C3013   1.415       .  A
C3013      C3014   1.395       .  A
C3013      N3020   1.432       .  S
C3014      C3015   1.405       .  A
C3014      H3019   1.084       .  S
C3015      C3016   1.404       .  A
C3016      N3017   1.439       .  S
N3017      H3021   1.045       .  S
N3017      H3022   1.046       .  S
N3020      H3023   1.045       .  S
N3020      H3024   1.045       .  S
C3025      C3026   1.405       .  A
C3025      C3030   1.405       .  A
C3025      H3032   1.084       .  S
C3026      C3027   1.406       .  A
C3027      C3028   1.398       .  A
C3027      N3034   1.439       .  S
C3028      C3029   1.408       .  A
C3028      H3033   1.084       .  S
C3029      C3030   1.411       .  A
C3030      N3031   1.437       .  S
N3031      H3035   1.046       .  S
N3031      H3036   1.045       .  S
N3034      H3037   1.046       .  S
N3034      H3038   1.046       .  S
C3039      C3040   1.406       .  A
C3039      C3044   1.406       .  A
C3039      H3046   1.084       .  S
C3040      C3041   1.410       .  A
C3041      C3042   1.404       .  A
C3041      N3048   1.437       .  S
C3042      C3043   1.401       .  A
C3042      H3047   1.084       .  S
C3043      C3044   1.410       .  A
C3044      N3045   1.439       .  S
N3045      H3049   1.046       .  S
N3045      H3050   1.045       .  S
N3048      H3051   1.046       .  S
N3048      H3052   1.046       .  S
C3053      C3054   1.408       .  A
C3053      C3058   1.397       .  A
C3053      H3060   1.083       .  S
C3054      C3055   1.414       .  A
C3055      C3056   1.399       .  A
C3055      N3062   1.432       .  S
C3056      C3057   1.409       .  A
C3056      H3061   1.084       .  S
C3057      C3058   1.409       .  A
C3058      N3059   1.439       .  S
N3059      H3063   1.044       .  S
N3059      H3064   1.047       .  S
N3062      H3065   1.045       .  S
N3062      H3066   1.045       .  S
C3067      C3068   1.402       .  A
C3067      C3072   1.399       .  A
C3067      H3074   1.084       .  S
C3068      C3069   1.417   1_545  A
C3069      C3070   1.410   1_565  A
C3069      N3076   1.438       .  S
C3070      C3071   1.408       .  A
C3070      H3075   1.083   1_545  S
C3071      C3072   1.422       .  A
C3072      N3073   1.432       .  S
N3073      H3077   1.045       .  S
N3073      H3078   1.045       .  S
N3076      H3079   1.045       .  S
N3076      H3080   1.046       .  S
C3081      C3082   1.408       .  A
C3081      C3086   1.402       .  A
C3081      H3088   1.084   1_565  S
C3082      C3083   1.409       .  A
C3083      C3084   1.408       .  A
C3083      N3090   1.437       .  S
C3084      C3085   1.406       .  A
C3084      H3089   1.084       .  S
C3085      C3086   1.409       .  A
C3086      N3087   1.439   1_565  S
N3087      H3091   1.046       .  S
N3087      H3092   1.045       .  S
N3090      H3093   1.046       .  S
N3090      H3094   1.046       .  S
C3095      C3096   1.397       .  A
C3095      C3100   1.404       .  A
C3095      H3102   1.084       .  S
C3096      C3097   1.412       .  A
C3097      C3098   1.399       .  A
C3097      N3104   1.439       .  S
C3098      C3099   1.401       .  A
C3098      H3103   1.083       .  S
C3099      C3100   1.419       .  A
C3100      N3101   1.438       .  S
N3101      H3105   1.046       .  S
N3101      H3106   1.046       .  S
N3104      H3107   1.046       .  S
N3104      H3108   1.046       .  S
C3109      C3110   1.407       .  A
C3109      C3114   1.402       .  A
C3109      H3116   1.084       .  S
C3110      C3111   1.409       .  A
C3111      C3112   1.409       .  A
C3111      N3118   1.437       .  S
C3112      C3113   1.409       .  A
C3112      H3117   1.084       .  S
C3113      C3114   1.409       .  A
C3114      N3115   1.439       .  S
N3115      H3119   1.046       .  S
N3115      H3120   1.046       .  S
N3118      H3121   1.045       .  S
N3118      H3122   1.046       .  S
C3123      C3124   1.397       .  A
C3123      C3128   1.402       .  A
C3123      H3130   1.084       .  S
C3124      C3125   1.411       .  A
C3125      C3126   1.410       .  A
C3125      N3132   1.437       .  S
C3126      C3127   1.406       .  A
C3126      H3131   1.083       .  S
C3127      C3128   1.416       .  A
C3128      N3129   1.433       .  S
N3129      H3133   1.046       .  S
N3129      H3134   1.046       .  S
N3132      H3135   1.045       .  S
N3132      H3136   1.046       .  S
C3137      C3138   1.403       .  A
C3137      C3142   1.401       .  A
C3137      H3144   1.084       .  S
C3138      C3139   1.424       .  A
C3139      C3140   1.394       .  A
C3139      N3146   1.433       .  S
C3140      C3141   1.400       .  A
C3140      H3145   1.084       .  S
C3141      C3142   1.415       .  A
C3142      N3143   1.433       .  S
N3143      H3147   1.046       .  S
N3143      H3148   1.046       .  S
N3146      H3149   1.045       .  S
N3146      H3150   1.045       .  S
C3151      C3152   1.397       .  A
C3151      C3156   1.404       .  A
C3151      H3158   1.084       .  S
C3152      C3153   1.412       .  A
C3153      C3154   1.402       .  A
C3153      N3160   1.439       .  S
C3154      C3155   1.401       .  A
C3154      H3159   1.083       .  S
C3155      C3156   1.419       .  A
C3156      N3157   1.438       .  S
N3157      H3161   1.046       .  S
N3157      H3162   1.046       .  S
N3160      H3163   1.046       .  S
N3160      H3164   1.046       .  S
C3165      C3166   1.403       .  A
C3165      C3170   1.402       .  A
C3165      H3172   1.084       .  S
C3166      C3167   1.417       .  A
C3167      C3168   1.406       .  A
C3167      N3174   1.438       .  S
C3168      C3169   1.400       .  A
C3168      H3173   1.084       .  S
C3169      C3170   1.417       .  A
C3170      N3171   1.439       .  S
N3171      H3175   1.045       .  S
N3171      H3176   1.042       .  S
N3174      H3177   1.046       .  S
N3174      H3178   1.046       .  S
C3179      C3180   1.410       .  A
C3179      C3184   1.399       .  A
C3179      H3186   1.083       .  S
C3180      C3181   1.412       .  A
C3181      C3182   1.406       .  A
C3181      N3188   1.438       .  S
C3182      C3183   1.407       .  A
C3182      H3187   1.084       .  S
C3183      C3184   1.407       .  A
C3184      N3185   1.439       .  S
N3185      H3189   1.045       .  S
N3185      H3190   1.046       .  S
N3188      H3191   1.045       .  S
N3188      H3192   1.046       .  S
C3193      C3194   1.399       .  A
C3193      C3198   1.409       .  A
C3193      H3200   1.084       .  S
C3194      C3195   1.415       .  A
C3195      C3196   1.408       .  A
C3195      N3202   1.439       .  S
C3196      C3197   1.407       .  A
C3196      H3201   1.083       .  S
C3197      C3198   1.421       .  A
C3198      N3199   1.438       .  S
N3199      H3203   1.046       .  S
N3199      H3204   1.046       .  S
N3202      H3205   1.046       .  S
N3202      H3206   1.046       .  S
C3207      C3208   1.401       .  A
C3207      C3212   1.401       .  A
C3207      H3214   1.084       .  S
C3208      C3209   1.419       .  A
C3209      C3210   1.413       .  A
C3209      N3216   1.437       .  S
C3210      C3211   1.402       .  A
C3210      H3215   1.083       .  S
C3211      C3212   1.414       .  A
C3212      N3213   1.433       .  S
N3213      H3217   1.046       .  S
N3213      H3218   1.046       .  S
N3216      H3219   1.046       .  S
N3216      H3220   1.046       .  S
C3221      C3222   1.398       .  A
C3221      C3226   1.405       .  A
C3221      H3228   1.084       .  S
C3222      C3223   1.411       .  A
C3223      C3224   1.395       .  A
C3223      N3230   1.434       .  S
C3224      C3225   1.402       .  A
C3224      H3229   1.084       .  S
C3225      C3226   1.421       .  A
C3226      N3227   1.438       .  S
N3227      H3231   1.046       .  S
N3227      H3232   1.046       .  S
N3230      H3233   1.046       .  S
N3230      H3234   1.046       .  S
C3235      C3236   1.405       .  A
C3235      C3240   1.399       .  A
C3235      H3242   1.084       .  S
C3236      C3237   1.413       .  A
C3237      C3238   1.408       .  A
C3237      N3244   1.438       .  S
C3238      C3239   1.403       .  A
C3238      H3243   1.084       .  S
C3239      C3240   1.413       .  A
C3240      N3241   1.438       .  S
N3241      H3245   1.046       .  S
N3241      H3246   1.044       .  S
N3244      H3247   1.045       .  S
N3244      H3248   1.046       .  S
C3249      C3250   1.403       .  A
C3249      C3254   1.396       .  A
C3249      H3256   1.084       .  S
C3250      C3251   1.426       .  A
C3251      C3252   1.398       .  A
C3251      N3258   1.433       .  S
C3252      C3253   1.396       .  A
C3252      H3257   1.084       .  S
C3253      C3254   1.416       .  A
C3254      N3255   1.434       .  S
N3255      H3259   1.045       .  S
N3255      H3260   1.045       .  S
N3258      H3261   1.045       .  S
N3258      H3262   1.045       .  S
C3263      C3264   1.405       .  A
C3263      C3268   1.397       .  A
C3263      H3270   1.084       .  S
C3264      C3265   1.408       .  A
C3265      C3266   1.411       .  A
C3265      N3272   1.437       .  S
C3266      C3267   1.410       .  A
C3266      H3271   1.083       .  S
C3267      C3268   1.406       .  A
C3268      N3269   1.433       .  S
N3269      H3273   1.046       .  S
N3269      H3274   1.046       .  S
N3272      H3275   1.046       .  S
N3272      H3276   1.046       .  S
C3277      C3278   1.399       .  A
C3277      C3282   1.403       .  A
C3277      H3284   1.084       .  S
C3278      C3279   1.419       .  A
C3279      C3280   1.394       .  A
C3279      N3286   1.434       .  S
C3280      C3281   1.401       .  A
C3280      H3285   1.084       .  S
C3281      C3282   1.419       .  A
C3282      N3283   1.433       .  S
N3283      H3287   1.046       .  S
N3283      H3288   1.046       .  S
N3286      H3289   1.044       .  S
N3286      H3290   1.045       .  S
C3291      C3292   1.411       .  A
C3291      C3296   1.414       .  A
C3291      H3298   1.083       .  S
C3292      C3293   1.410       .  A
C3293      C3294   1.403       .  A
C3293      N3300   1.433       .  S
C3294      C3295   1.409       .  A
C3294      H3299   1.083       .  S
C3295      C3296   1.414       .  A
C3296      N3297   1.437       .  S
N3297      H3301   1.046       .  S
N3297      H3302   1.046       .  S
N3300      H3303   1.046       .  S
N3300      H3304   1.046       .  S
C3305      C3306   1.404       .  A
C3305      C3310   1.401       .  A
C3305      H3312   1.084       .  S
C3306      C3307   1.410       .  A
C3307      C3308   1.403       .  A
C3307      N3314   1.432       .  S
C3308      C3309   1.410       .  A
C3308      H3313   1.084       .  S
C3309      C3310   1.411       .  A
C3310      N3311   1.438       .  S
N3311      H3315   1.046       .  S
N3311      H3316   1.045       .  S
N3314      H3317   1.046       .  S
N3314      H3318   1.045       .  S
C3319      C3320   1.411       .  A
C3319      C3324   1.408       .  A
C3319      H3326   1.083       .  S
C3320      C3321   1.412       .  A
C3321      C3322   1.402       .  A
C3321      N3328   1.438       .  S
C3322      C3323   1.404       .  A
C3322      H3327   1.084       .  S
C3323      C3324   1.406       .  A
C3324      N3325   1.437       .  S
N3325      H3329   1.046       .  S
N3325      H3330   1.045       .  S
N3328      H3331   1.045       .  S
N3328      H3332   1.046       .  S
C3333      C3334   1.407       .  A
C3333      C3338   1.403       .  A
C3333      H3340   1.083       .  S
C3334      C3335   1.409       .  A
C3335      C3336   1.403       .  A
C3335      N3342   1.438       .  S
C3336      C3337   1.410       .  A
C3336      H3341   1.083       .  S
C3337      C3338   1.413       .  A
C3338      N3339   1.438       .  S
N3339      H3343   1.046       .  S
N3339      H3344   1.045       .  S
N3342      H3345   1.046       .  S
N3342      H3346   1.046       .  S
C3347      C3348   1.401       .  A
C3347      C3352   1.393       .  A
C3347      H3354   1.084       .  S
C3348      C3349   1.420       .  A
C3349      C3350   1.402       .  A
C3349      N3356   1.438       .  S
C3350      C3351   1.400       .  A
C3350      H3355   1.084       .  S
C3351      C3352   1.422       .  A
C3352      N3353   1.433       .  S
N3353      H3357   1.046       .  S
N3353      H3358   1.044       .  S
N3356      H3359   1.045       .  S
N3356      H3360   1.046       .  S
C3361      C3362   1.401       .  A
C3361      C3366   1.408       .  A
C3361      H3368   1.083       .  S
C3362      C3363   1.419       .  A
C3363      C3364   1.407       .  A
C3363      N3370   1.439       .  S
C3364      C3365   1.405       .  A
C3364      H3369   1.083       .  S
C3365      C3366   1.421       .  A
C3366      N3367   1.438       .  S
N3367      H3371   1.045       .  S
N3367      H3372   1.046   1_554  S
N3370      H3373   1.046       .  S
N3370      H3374   1.046       .  S
C3375      C3376   1.396       .  A
C3375      C3380   1.406       .  A
C3375      H3382   1.084       .  S
C3376      C3377   1.413       .  A
C3377      C3378   1.402       .  A
C3377      N3384   1.432       .  S
C3378      C3379   1.405       .  A
C3378      H3383   1.084       .  S
C3379      C3380   1.422       .  A
C3380      N3381   1.438       .  S
N3381      H3385   1.046       .  S
N3381      H3386   1.045       .  S
N3384      H3387   1.046       .  S
N3384      H3388   1.044       .  S
C3389      C3390   1.410       .  A
C3389      C3394   1.403       .  A
C3389      H3396   1.083       .  S
C3390      C3391   1.411       .  A
C3391      C3392   1.402       .  A
C3391      N3398   1.438       .  S
C3392      C3393   1.408       .  A
C3392      H3397   1.083       .  S
C3393      C3394   1.409       .  A
C3394      N3395   1.438       .  S
N3395      H3399   1.046       .  S
N3395      H3400   1.045       .  S
N3398      H3401   1.045       .  S
N3398      H3402   1.046       .  S
C3403      C3404   1.403       .  A
C3403      C3408   1.407       .  A
C3403      H3410   1.084       .  S
C3404      C3405   1.417       .  A
C3405      C3406   1.406       .  A
C3405      N3412   1.439       .  S
C3406      C3407   1.404       .  A
C3406      H3411   1.083       .  S
C3407      C3408   1.420       .  A
C3408      N3409   1.438       .  S
N3409      H3413   1.046       .  S
N3409      H3414   1.046       .  S
N3412      H3415   1.046       .  S
N3412      H3416   1.046       .  S
C3417      C3418   1.405       .  A
C3417      C3422   1.402       .  A
C3417      H3424   1.084       .  S
C3418      C3419   1.408       .  A
C3419      C3420   1.408       .  A
C3419      N3426   1.437       .  S
C3420      C3421   1.409       .  A
C3420      H3425   1.084       .  S
C3421      C3422   1.411       .  A
C3422      N3423   1.438       .  S
N3423      H3427   1.046       .  S
N3423      H3428   1.045       .  S
N3426      H3429   1.046       .  S
N3426      H3430   1.046       .  S
C3431      C3432   1.398       .  A
C3431      C3436   1.404       .  A
C3431      H3438   1.084       .  S
C3432      C3433   1.412       .  A
C3433      C3434   1.392       .  A
C3433      N3440   1.434       .  S
C3434      C3435   1.402       .  A
C3434      H3439   1.084       .  S
C3435      C3436   1.416       .  A
C3436      N3437   1.438       .  S
N3437      H3441   1.046       .  S
N3437      H3442   1.046       .  S
N3440      H3443   1.045       .  S
N3440      H3444   1.046       .  S
C3445      C3446   1.411       .  A
C3445      C3450   1.408       .  A
C3445      H3452   1.083       .  S
C3446      C3447   1.410       .  A
C3447      C3448   1.400       .  A
C3447      N3454   1.433   1_554  S
C3448      C3449   1.407       .  A
C3448      H3453   1.084   1_554  S
C3449      C3450   1.411       .  A
C3450      N3451   1.438       .  S
N3451      H3455   1.046       .  S
N3451      H3456   1.046       .  S
N3454      H3457   1.046       .  S
N3454      H3458   1.046   1_556  S
C3459      C3460   1.404       .  A
C3459      C3464   1.398       .  A
C3459      H3466   1.084       .  S
C3460      C3461   1.407       .  A
C3461      C3462   1.402       .  A
C3461      N3468   1.432       .  S
C3462      C3463   1.410       .  A
C3462      H3467   1.084       .  S
C3463      C3464   1.410       .  A
C3464      N3465   1.439       .  S
N3465      H3469   1.046       .  S
N3465      H3470   1.045       .  S
N3468      H3471   1.046       .  S
N3468      H3472   1.045       .  S
C3473      C3474   1.403       .  A
C3473      C3478   1.394       .  A
C3473      H3480   1.084       .  S
C3474      C3475   1.424       .  A
C3475      C3476   1.395       .  A
C3475      N3482   1.433       .  S
C3476      C3477   1.399       .  A
C3476      H3481   1.084       .  S
C3477      C3478   1.419       .  A
C3478      N3479   1.433       .  S
N3479      H3483   1.045       .  S
N3479      H3484   1.045       .  S
N3482      H3485   1.045       .  S
N3482      H3486   1.046   1_556  S
C3487      C3488   1.407       .  A
C3487      C3492   1.401       .  A
C3487      H3494   1.084       .  S
C3488      C3489   1.409       .  A
C3489      C3490   1.408       .  A
C3489      N3496   1.437       .  S
C3490      C3491   1.408       .  A
C3490      H3495   1.084       .  S
C3491      C3492   1.410       .  A
C3492      N3493   1.438       .  S
N3493      H3497   1.046   1_556  S
N3493      H3498   1.045       .  S
N3496      H3499   1.046       .  S
N3496      H3500   1.046       .  S
C3501      C3502   1.411       .  A
C3501      C3506   1.398       .  A
C3501      H3508   1.083       .  S
C3502      C3503   1.417       .  A
C3503      C3504   1.396       .  A
C3503      N3510   1.432       .  S
C3504      C3505   1.406       .  A
C3504      H3509   1.084       .  S
C3505      C3506   1.412       .  A
C3506      N3507   1.433       .  S
N3507      H3511   1.044       .  S
N3507      H3512   1.046       .  S
N3510      H3513   1.046       .  S
N3510      H3514   1.044       .  S
C3515      C3516   1.409       .  A
C3515      C3520   1.406       .  A
C3515      H3522   1.083       .  S
C3516      C3517   1.413       .  A
C3517      C3518   1.407       .  A
C3517      N3524   1.432       .  S
C3518      C3519   1.408       .  A
C3518      H3523   1.084       .  S
C3519      C3520   1.411       .  A
C3520      N3521   1.432       .  S
N3521      H3525   1.045       .  S
N3521      H3526   1.046       .  S
N3524      H3527   1.046       .  S
N3524      H3528   1.046       .  S
C3529      C3530   1.401       .  A
C3529      C3534   1.397       .  A
C3529      H3536   1.084       .  S
C3530      C3531   1.417       .  A
C3531      C3532   1.406       .  A
C3531      N3538   1.432       .  S
C3532      C3533   1.399       .  A
C3532      H3537   1.084       .  S
C3533      C3534   1.419       .  A
C3534      N3535   1.440       .  S
N3535      H3539   1.046       .  S
N3535      H3540   1.041       .  S
N3538      H3541   1.046       .  S
N3538      H3542   1.046       .  S
C3543      C3544   1.400       .  A
C3543      C3548   1.396       .  A
C3543      H3550   1.084       .  S
C3544      C3545   1.419       .  A
C3545      C3546   1.412       .  A
C3545      N3552   1.437       .  S
C3546      C3547   1.400       .  A
C3546      H3551   1.083       .  S
C3547      C3548   1.411       .  A
C3548      N3549   1.434       .  S
N3549      H3553   1.046       .  S
N3549      H3554   1.046       .  S
N3552      H3555   1.045       .  S
N3552      H3556   1.046       .  S
C3557      C3558   1.405       .  A
C3557      C3562   1.392       .  A
C3557      H3564   1.084       .  S
C3558      C3559   1.407       .  A
C3559      C3560   1.402       .  A
C3559      N3566   1.438       .  S
C3560      C3561   1.411       .  A
C3560      H3565   1.083       .  S
C3561      C3562   1.416       .  A
C3562      N3563   1.433       .  S
N3563      H3567   1.045       .  S
N3563      H3568   1.045       .  S
N3566      H3569   1.046       .  S
N3566      H3570   1.045       .  S
C3571      C3572   1.411       .  A
C3571      C3576   1.408       .  A
C3571      H3578   1.083       .  S
C3572      C3573   1.418   1_455  A
C3573      C3574   1.414       .  A
C3573      N3580   1.438       .  S
C3574      C3575   1.407       .  A
C3574      H3579   1.084       .  S
C3575      C3576   1.408   1_655  A
C3576      N3577   1.438       .  S
N3577      H3581   1.046       .  S
N3577      H3582   1.046       .  S
N3580      H3583   1.045       .  S
N3580      H3584   1.046       .  S
C3585      C3586   1.409       .  A
C3585      C3590   1.399       .  A
C3585      H3592   1.083       .  S
C3586      C3587   1.412       .  A
C3587      C3588   1.405       .  A
C3587      N3594   1.438       .  S
C3588      C3589   1.407       .  A
C3588      H3593   1.084       .  S
C3589      C3590   1.406       .  A
C3590      N3591   1.438       .  S
N3591      H3595   1.046       .  S
N3591      H3596   1.046       .  S
N3594      H3597   1.046       .  S
N3594      H3598   1.046       .  S
C3599      C3600   1.409       .  A
C3599      C3604   1.405       .  A
C3599      H3606   1.084       .  S
C3600      C3601   1.410       .  A
C3601      C3602   1.399       .  A
C3601      N3608   1.438       .  S
C3602      C3603   1.405       .  A
C3602      H3607   1.084       .  S
C3603      C3604   1.407       .  A
C3604      N3605   1.437       .  S
N3605      H3609   1.046       .  S
N3605      H3610   1.046       .  S
N3608      H3611   1.045       .  S
N3608      H3612   1.046       .  S
C3613      C3614   1.411       .  A
C3613      C3618   1.405       .  A
C3613      H3620   1.083       .  S
C3614      C3615   1.416       .  A
C3615      C3616   1.397       .  A
C3615      N3622   1.432       .  S
C3616      C3617   1.407       .  A
C3616      H3621   1.084       .  S
C3617      C3618   1.409       .  A
C3618      N3619   1.438       .  S
N3619      H3623   1.046       .  S
N3619      H3624   1.046       .  S
N3622      H3625   1.045       .  S
N3622      H3626   1.045       .  S
C3627      C3628   1.401       .  A
C3627      C3632   1.407       .  A
C3627      H3634   1.084       .  S
C3628      C3629   1.415       .  A
C3629      C3630   1.411       .  A
C3629      N3636   1.438       .  S
C3630      C3631   1.407       .  A
C3630      H3635   1.083       .  S
C3631      C3632   1.420       .  A
C3632      N3633   1.438       .  S
N3633      H3637   1.046       .  S
N3633      H3638   1.046       .  S
N3636      H3639   1.045       .  S
N3636      H3640   1.046       .  S
C3641      C3642   1.405       .  A
C3641      C3646   1.410       .  A
C3641      H3648   1.084       .  S
C3642      C3643   1.416       .  A
C3643      C3644   1.402       .  A
C3643      N3650   1.438       .  S
C3644      C3645   1.404       .  A
C3644      H3649   1.084       .  S
C3645      C3646   1.411       .  A
C3646      N3647   1.437       .  S
N3647      H3651   1.046       .  S
N3647      H3652   1.046       .  S
N3650      H3653   1.044       .  S
N3650      H3654   1.046       .  S
C3655      C3656   1.408       .  A
C3655      C3660   1.402       .  A
C3655      H3662   1.083       .  S
C3656      C3657   1.407       .  A
C3657      C3658   1.404       .  A
C3657      N3664   1.438       .  S
C3658      C3659   1.411       .  A
C3658      H3663   1.083       .  S
C3659      C3660   1.413       .  A
C3660      N3661   1.438       .  S
N3661      H3665   1.046       .  S
N3661      H3666   1.046       .  S
N3664      H3667   1.046       .  S
N3664      H3668   1.046       .  S
C3669      C3670   1.408       .  A
C3669      C3674   1.402       .  A
C3669      H3676   1.084       .  S
C3670      C3671   1.414       .  A
C3671      C3672   1.403       .  A
C3671      N3678   1.432       .  S
C3672      C3673   1.408       .  A
C3672      H3677   1.084       .  S
C3673      C3674   1.409       .  A
C3674      N3675   1.439       .  S
N3675      H3679   1.046       .  S
N3675      H3680   1.046       .  S
N3678      H3681   1.046       .  S
N3678      H3682   1.045       .  S
C3683      C3684   1.408       .  A
C3683      C3688   1.404       .  A
C3683      H3690   1.083       .  S
C3684      C3685   1.410       .  A
C3685      C3686   1.404       .  A
C3685      N3692   1.438       .  S
C3686      C3687   1.410       .  A
C3686      H3691   1.083       .  S
C3687      C3688   1.411       .  A
C3688      N3689   1.438       .  S
N3689      H3693   1.046       .  S
N3689      H3694   1.046       .  S
N3692      H3695   1.046       .  S
N3692      H3696   1.045       .  S
C3697      C3698   1.401   1_455  A
C3697      C3702   1.406       .  A
C3697      H3704   1.084       .  S
C3698      C3699   1.415       .  A
C3699      C3700   1.407       .  A
C3699      N3706   1.438       .  S
C3700      C3701   1.406   1_655  A
C3700      H3705   1.083       .  S
C3701      C3702   1.420       .  A
C3702      N3703   1.438       .  S
N3703      H3707   1.046       .  S
N3703      H3708   1.046       .  S
N3706      H3709   1.045       .  S
N3706      H3710   1.046       .  S
C3711      C3712   1.399       .  A
C3711      C3716   1.403       .  A
C3711      H3718   1.084       .  S
C3712      C3713   1.420       .  A
C3713      C3714   1.403       .  A
C3713      N3720   1.439       .  S
C3714      C3715   1.402       .  A
C3714      H3719   1.084       .  S
C3715      C3716   1.416       .  A
C3716      N3717   1.439   1_655  S
N3717      H3721   1.046       .  S
N3717      H3722   1.046       .  S
N3720      H3723   1.041       .  S
N3720      H3724   1.045       .  S
C3725      C3726   1.401       .  A
C3725      C3730   1.406       .  A
C3725      H3732   1.084       .  S
C3726      C3727   1.412       .  A
C3727      C3728   1.393       .  A
C3727      N3734   1.434       .  S
C3728      C3729   1.401       .  A
C3728      H3733   1.084       .  S
C3729      C3730   1.420       .  A
C3730      N3731   1.438       .  S
N3731      H3735   1.046       .  S
N3731      H3736   1.046       .  S
N3734      H3737   1.046       .  S
N3734      H3738   1.046       .  S
C3739      C3740   1.411       .  A
C3739      C3744   1.405       .  A
C3739      H3746   1.083       .  S
C3740      C3741   1.416       .  A
C3741      C3742   1.410       .  A
C3741      N3748   1.438       .  S
C3742      C3743   1.407       .  A
C3742      H3747   1.083       .  S
C3743      C3744   1.409       .  A
C3744      N3745   1.438       .  S
N3745      H3749   1.046       .  S
N3745      H3750   1.045       .  S
N3748      H3751   1.045       .  S
N3748      H3752   1.046       .  S
C3753      C3754   1.402       .  A
C3753      C3758   1.408       .  A
C3753      H3760   1.083       .  S
C3754      C3755   1.414       .  A
C3755      C3756   1.397       .  A
C3755      N3762   1.433       .  S
C3756      C3757   1.400       .  A
C3756      H3761   1.084       .  S
C3757      C3758   1.415       .  A
C3758      N3759   1.438       .  S
N3759      H3763   1.046       .  S
N3759      H3764   1.046       .  S
N3762      H3765   1.046       .  S
N3762      H3766   1.046       .  S
C3767      C3768   1.404       .  A
C3767      C3772   1.408       .  A
C3767      H3774   1.084       .  S
C3768      C3769   1.412       .  A
C3769      C3770   1.399       .  A
C3769      N3776   1.438       .  S
C3770      C3771   1.407       .  A
C3770      H3775   1.084       .  S
C3771      C3772   1.412       .  A
C3772      N3773   1.437       .  S
N3773      H3777   1.046       .  S
N3773      H3778   1.045       .  S
N3776      H3779   1.044       .  S
N3776      H3780   1.046       .  S
C3781      C3782   1.401       .  A
C3781      C3786   1.398       .  A
C3781      H3788   1.083       .  S
C3782      C3783   1.419       .  A
C3783      C3784   1.405       .  A
C3783      N3790   1.438       .  S
C3784      C3785   1.397       .  A
C3784      H3789   1.084       .  S
C3785      C3786   1.412       .  A
C3786      N3787   1.439       .  S
N3787      H3791   1.046       .  S
N3787      H3792   1.045       .  S
N3790      H3793   1.046       .  S
N3790      H3794   1.046   1_655  S
C3795      C3796   1.408       .  A
C3795      C3800   1.403       .  A
C3795      H3802   1.084       .  S
C3796      C3797   1.412   1_655  A
C3797      C3798   1.409       .  A
C3797      N3804   1.438       .  S
C3798      C3799   1.410       .  A
C3798      H3803   1.083       .  S
C3799      C3800   1.411   1_455  A
C3800      N3801   1.432       .  S
N3801      H3805   1.046       .  S
N3801      H3806   1.046   1_554  S
N3804      H3807   1.046       .  S
N3804      H3808   1.046       .  S
C3809      C3810   1.399       .  A
C3809      C3814   1.397       .  A
C3809      H3816   1.084       .  S
C3810      C3811   1.417       .  A
C3811      C3812   1.404       .  A
C3811      N3818   1.438       .  S
C3812      C3813   1.403       .  A
C3812      H3817   1.083       .  S
C3813      C3814   1.416       .  A
C3814      N3815   1.433       .  S
N3815      H3819   1.046       .  S
N3815      H3820   1.046       .  S
N3818      H3821   1.046       .  S
N3818      H3822   1.045       .  S
C3823      C3824   1.404       .  A
C3823      C3828   1.403       .  A
C3823      H3830   1.083       .  S
C3824      C3825   1.421   1_655  A
C3825      C3826   1.407       .  A
C3825      N3832   1.438       .  S
C3826      C3827   1.399   1_455  A
C3826      H3831   1.084       .  S
C3827      C3828   1.411       .  A
C3828      N3829   1.433       .  S
N3829      H3833   1.045       .  S
N3829      H3834   1.046       .  S
N3832      H3835   1.046       .  S
N3832      H3836   1.046       .  S
C3837      C3838   1.410       .  A
C3837      C3842   1.399       .  A
C3837      H3844   1.084       .  S
C3838      C3839   1.411       .  A
C3839      C3840   1.403       .  A
C3839      N3846   1.438       .  S
C3840      C3841   1.406       .  A
C3840      H3845   1.084       .  S
C3841      C3842   1.407       .  A
C3842      N3843   1.432       .  S
N3843      H3847   1.045       .  S
N3843      H3848   1.046       .  S
N3846      H3849   1.046       .  S
N3846      H3850   1.046       .  S
C3851      C3852   1.400       .  A
C3851      C3856   1.393       .  A
C3851      H3858   1.084       .  S
C3852      C3853   1.419       .  A
C3853      C3854   1.403       .  A
C3853      N3860   1.438       .  S
C3854      C3855   1.397       .  A
C3854      H3859   1.084       .  S
C3855      C3856   1.415       .  A
C3856      N3857   1.434       .  S
N3857      H3861   1.046       .  S
N3857      H3862   1.044       .  S
N3860      H3863   1.046       .  S
N3860      H3864   1.046       .  S
C3865      C3866   1.408       .  A
C3865      C3870   1.403       .  A
C3865      H3872   1.084       .  S
C3866      C3867   1.411       .  A
C3867      C3868   1.408   1_554  A
C3867      N3874   1.437   1_554  S
C3868      C3869   1.410   1_556  A
C3868      H3873   1.083       .  S
C3869      C3870   1.410       .  A
C3870      N3871   1.433       .  S
N3871      H3875   1.045       .  S
N3871      H3876   1.046       .  S
N3874      H3877   1.045       .  S
N3874      H3878   1.046       .  S
C3879      C3880   1.399       .  A
C3879      C3884   1.401       .  A
C3879      H3886   1.084       .  S
C3880      C3881   1.410       .  A
C3881      C3882   1.408       .  A
C3881      N3888   1.438       .  S
C3882      C3883   1.404       .  A
C3882      H3887   1.084       .  S
C3883      C3884   1.414       .  A
C3884      N3885   1.439       .  S
N3885      H3889   1.046       .  S
N3885      H3890   1.045       .  S
N3888      H3891   1.046       .  S
N3888      H3892   1.045       .  S
C3893      C3894   1.398       .  A
C3893      C3898   1.403       .  A
C3893      H3900   1.084       .  S
C3894      C3895   1.413       .  A
C3895      C3896   1.399       .  A
C3895      N3902   1.439       .  S
C3896      C3897   1.403       .  A
C3896      H3901   1.083       .  S
C3897      C3898   1.419       .  A
C3898      N3899   1.438   1_556  S
N3899      H3903   1.046       .  S
N3899      H3904   1.046       .  S
N3902      H3905   1.046       .  S
N3902      H3906   1.046       .  S
C3907      C3908   1.412   1_556  A
C3907      C3912   1.407   1_556  A
C3907      H3914   1.083       .  S
C3908      C3909   1.420       .  A
C3909      C3910   1.403       .  A
C3909      N3916   1.432       .  S
C3910      C3911   1.407       .  A
C3910      H3915   1.084       .  S
C3911      C3912   1.409       .  A
C3912      N3913   1.438   1_554  S
N3913      H3917   1.046       .  S
N3913      H3918   1.045   1_556  S
N3916      H3919   1.045       .  S
N3916      H3920   1.045       .  S
C3921      C3922   1.405       .  A
C3921      C3926   1.407       .  A
C3921      H3928   1.084       .  S
C3922      C3923   1.415       .  A
C3923      C3924   1.397       .  A
C3923      N3930   1.433   1_556  S
C3924      C3925   1.398       .  A
C3924      H3929   1.084   1_556  S
C3925      C3926   1.412       .  A
C3926      N3927   1.438       .  S
N3927      H3931   1.046       .  S
N3927      H3932   1.046       .  S
N3930      H3933   1.046       .  S
N3930      H3934   1.045   1_554  S
C3935      C3936   1.408       .  A
C3935      C3940   1.393       .  A
C3935      H3942   1.084       .  S
C3936      C3937   1.410       .  A
C3937      C3938   1.404       .  A
C3937      N3944   1.438       .  S
C3938      C3939   1.410       .  A
C3938      H3943   1.083       .  S
C3939      C3940   1.413       .  A
C3940      N3941   1.433       .  S
N3941      H3945   1.046       .  S
N3941      H3946   1.044       .  S
N3944      H3947   1.046       .  S
N3944      H3948   1.045       .  S
C3949      C3950   1.410       .  A
C3949      C3954   1.407       .  A
C3949      H3956   1.083       .  S
C3950      C3951   1.412   1_655  A
C3951      C3952   1.402       .  A
C3951      N3958   1.432       .  S
C3952      C3953   1.405       .  A
C3952      H3957   1.084       .  S
C3953      C3954   1.410   1_455  A
C3954      N3955   1.438       .  S
N3955      H3959   1.045       .  S
N3955      H3960   1.046   1_554  S
N3958      H3961   1.046       .  S
N3958      H3962   1.045       .  S
C3963      C3964   1.401       .  A
C3963      C3968   1.397       .  A
C3963      H3970   1.084       .  S
C3964      C3965   1.419       .  A
C3965      C3966   1.409       .  A
C3965      N3972   1.438       .  S
C3966      C3967   1.399       .  A
C3966      H3971   1.084       .  S
C3967      C3968   1.411       .  A
C3968      N3969   1.434       .  S
N3969      H3973   1.046       .  S
N3969      H3974   1.046       .  S
N3972      H3975   1.046       .  S
N3972      H3976   1.046       .  S
C3977      C3978   1.402       .  A
C3977      C3982   1.401       .  A
C3977      H3984   1.083       .  S
C3978      C3979   1.420       .  A
C3979      C3980   1.405       .  A
C3979      N3986   1.438       .  S
C3980      C3981   1.398       .  A
C3980      H3985   1.084       .  S
C3981      C3982   1.413       .  A
C3982      N3983   1.439       .  S
N3983      H3987   1.046       .  S
N3983      H3988   1.046       .  S
N3986      H3989   1.046       .  S
N3986      H3990   1.046       .  S
C3991      C3992   1.403       .  A
C3991      C3996   1.401       .  A
C3991      H3998   1.084       .  S
C3992      C3993   1.413       .  A
C3993      C3994   1.398       .  A
C3993      N4000   1.433       .  S
C3994      C3995   1.404       .  A
C3994      H3999   1.084       .  S
C3995      C3996   1.424       .  A
C3996      N3997   1.432       .  S
N3997      H4001   1.045   1_455  S
N3997      H4002   1.045       .  S
N4000      H4003   1.046       .  S
N4000      H4004   1.046       .  S
C4005      C4006   1.406       .  A
C4005      C4010   1.411       .  A
C4005      H4012   1.084       .  S
C4006      C4007   1.404       .  A
C4007      C4008   1.398       .  A
C4007      N4014   1.437       .  S
C4008      C4009   1.408       .  A
C4008      H4013   1.084       .  S
C4009      C4010   1.413       .  A
C4010      N4011   1.437       .  S
N4011      H4015   1.046       .  S
N4011      H4016   1.045       .  S
N4014      H4017   1.046       .  S
N4014      H4018   1.045       .  S
C4019      C4020   1.396       .  A
C4019      C4024   1.399       .  A
C4019      H4026   1.084       .  S
C4020      C4021   1.409       .  A
C4021      C4022   1.403       .  A
C4021      N4028   1.432       .  S
C4022      C4023   1.403       .  A
C4022      H4027   1.084       .  S
C4023      C4024   1.420       .  A
C4024      N4025   1.439       .  S
N4025      H4029   1.046       .  S
N4025      H4030   1.046   1_556  S
N4028      H4031   1.046       .  S
N4028      H4032   1.046       .  S
