geometry optimzed in LAMMPS
_audit_creation_date              2020-12-01 
_audit_creation_method            'lammps2cif' 
_symmetry_space_group_name_H-M    'P1' 
_symmetry_Int_Tables_number       1 
_symmetry_cell_setting            triclinic 
loop_ 
_symmetry_equiv_pos_as_xyz 
  x,y,z 
_cell_length_a                    49.97466779 
_cell_length_b                    50.01751693643875 
_cell_length_c                    31.70802507308087 
_cell_angle_alpha                 90.04915560357817 
_cell_angle_beta                  89.89720298076892 
_cell_angle_gamma                 119.93816045753627 
loop_ 
_atom_site_label 
_atom_site_type_symbol 
_atom_site_fract_x 
_atom_site_fract_y 
_atom_site_fract_z 
_atom_site_charge 
O1          O  0.39513737  0.55270984  0.00156581    -0.57500
C2          C  0.46112565  0.59527010  0.09945276     0.75200
O3          O  0.38249620  0.49643040  0.10865981    -0.58600
C4          C  0.37577879  0.52520995  0.99111910     0.75100
C5          C  0.46211662  0.51930128  0.03041593     0.77500
Cd6        Cd  0.41885565  0.53770226  0.05995467     1.37500
O7          O  0.44747475  0.59452922  0.06534000    -0.57500
O8          O  0.45981095  0.54103474  0.01385841    -0.56300
C9          C  0.37482415  0.51391173  0.12778854     0.77500
O10         O  0.44384685  0.50557703  0.06089749    -0.58700
O11         O  0.45588564  0.56941482  0.11359378    -0.57100
O12         O  0.37704208  0.50441155  0.01218918    -0.57100
O13         O  0.38814262  0.54175912  0.11619079    -0.56300
O14         O  0.55906896  0.40040334  0.93312931    -0.57500
C15         C  0.62716582  0.47523817  0.01260028     0.75200
O16         O  0.61741690  0.49515303  0.88335550    -0.58600
C17         C  0.54302653  0.40003124  0.90180366     0.75100
C18         C  0.54609109  0.47819379  0.97059464     0.77500
Cd19       Cd  0.58721762  0.45789884  0.93990473     1.37500
O20         O  0.61207645  0.44716608  0.00116931    -0.57500
O21         O  0.54744719  0.45571099  0.98649913    -0.56300
C22         C  0.63162223  0.48109725  0.87266743     0.77500
O23         O  0.56376081  0.49122039  0.93927258    -0.58700
O24         O  0.62428595  0.49437023  0.98984776    -0.57100
O25         O  0.54709335  0.42595865  0.89021425    -0.57100
O26         O  0.62523486  0.45695956  0.89312621    -0.56300
O27         O  0.93694206  0.82381893  0.17605605    -0.57500
C28         C  0.88205802  0.81454830  0.06618077     0.75200
O29         O  0.95801081  0.79164488  0.05437604    -0.58600
C30         C  0.96302055  0.82542783  0.17849040     0.75100
C31         C  0.88259772  0.73509406  0.13434632     0.77500
Cd32       Cd  0.92364922  0.79762384  0.10580715     1.37500
O33         O  0.89775308  0.82880071  0.09836944    -0.57500
O34         O  0.88494006  0.75880529  0.15191356    -0.56300
C35         C  0.96998776  0.81909944  0.04057230     0.77500
O36         O  0.90040116  0.74007040  0.10307832    -0.58700
O37         O  0.88507280  0.79212200  0.05386340    -0.57100
O38         O  0.97092998  0.81534874  0.14713139    -0.57100
O39         O  0.95981255  0.83559676  0.05624586    -0.56300
O40         O  0.77927129  0.51916287  0.23443371    -0.57500
C41         C  0.71138381  0.52147357  0.15536252     0.75200
O42         O  0.72035285  0.55711847  0.27969508    -0.58600
C43         C  0.79543150  0.53428012  0.26596137     0.75100
C44         C  0.79655948  0.61081459  0.19423843     0.77500
Cd45       Cd  0.75325277  0.54995465  0.22605436     1.37500
O46         O  0.73066919  0.51317232  0.16567207    -0.57500
O47         O  0.79490120  0.58651528  0.17958533    -0.56300
C48         C  0.70903783  0.52999024  0.29445568     0.77500
O49         O  0.77776203  0.60690075  0.22381626    -0.58700
O50         O  0.71197186  0.54277224  0.17761683    -0.57100
O51         O  0.79273648  0.55707308  0.27730504    -0.57100
O52         O  0.71852483  0.51327950  0.27787629    -0.56300
O53         O  0.26740824  0.77754820  0.34886910    -0.57500
C54         C  0.21653357  0.73219638  0.23915297     0.75200
O55         O  0.23018156  0.82361363  0.27436246    -0.58600
C56         C  0.29252835  0.80272897  0.35326560     0.75100
C57         C  0.29850965  0.81774903  0.20984391     0.77500
Cd58       Cd  0.25470794  0.79120372  0.27859496     1.37500
O59         O  0.23697565  0.73616477  0.26600497    -0.57500
O60         O  0.28818915  0.79054959  0.22316477    -0.56300
C61         C  0.21115356  0.81030959  0.30417797     0.77500
O62         O  0.28851135  0.83352574  0.22848006    -0.58700
O63         O  0.21258172  0.75495771  0.23278987    -0.57100
O64         O  0.30031335  0.82168967  0.32312498    -0.57100
O65         O  0.21273264  0.78850960  0.32194196    -0.56300
O66         O  0.07117498  0.88574626  0.32556150    -0.57500
C67         C  0.12776556  0.93107689  0.42826919     0.75200
O68         O  0.05132104  0.83226421  0.44833369    -0.58600
C69         C  0.04556895  0.86105905  0.32133229     0.75100
C70         C  0.12372575  0.84667688  0.36572015     0.77500
Cd71       Cd  0.08464845  0.87110978  0.39377912     1.37500
O72         O  0.10828252  0.92802115  0.40039103    -0.57500
O73         O  0.12163198  0.86768054  0.34645557    -0.56300
C74         C  0.03987858  0.84830334  0.46194264     0.77500
O75         O  0.10706131  0.83622585  0.39846231    -0.58700
O76         O  0.12771460  0.90665046  0.43855148    -0.57100
O77         O  0.03817503  0.84137834  0.35052039    -0.57100
O78         O  0.04948522  0.87419730  0.44443594    -0.56300
O79         O  0.60952510  0.16349347  0.50945192    -0.57500
C80         C  0.54735015  0.14953514  0.40838082     0.75200
O81         O  0.61880029  0.12163467  0.39269737    -0.58600
C82         C  0.62650299  0.15218032  0.51896532     0.75100
C83         C  0.54159698  0.06772749  0.47429312     0.77500
Cd84       Cd  0.58652295  0.12945800  0.44591885     1.37500
O85         O  0.56611550  0.16527234  0.43743741    -0.57500
O86         O  0.54569378  0.09192478  0.49275163    -0.56300
C87         C  0.63016773  0.14840544  0.37682140     0.77500
O88         O  0.55821106  0.07204428  0.44183870    -0.58700
O89         O  0.54535069  0.12387540  0.39985116    -0.57100
O90         O  0.62556801  0.13198462  0.49410047    -0.57100
O91         O  0.62094415  0.16566183  0.39230536    -0.56300
O92         O  0.44045589  0.84837215  0.57266479    -0.57500
C93         C  0.37397626  0.84754165  0.49751629     0.75200
O94         O  0.38136715  0.88773788  0.61493889    -0.58600
C95         C  0.45859883  0.86382330  0.60232278     0.75100
C96         C  0.45523644  0.94265634  0.53228092     0.77500
Cd97       Cd  0.41627098  0.88074755  0.56575948     1.37500
O98         O  0.39957381  0.84830626  0.50146228    -0.57500
O99         O  0.44996186  0.91858302  0.51251732    -0.56300
C100        C  0.37325471  0.86289982  0.63502782     0.77500
O101        O  0.44180754  0.93811269  0.56770860    -0.58700
O102        O  0.36745260  0.86105553  0.52605588    -0.57100
O103        O  0.45867423  0.88828844  0.61275825    -0.57100
O104        O  0.38608938  0.84766613  0.62412867    -0.56300
O105        O  0.89566650  0.06750257  0.60600779    -0.57500
C106        C  0.96186711  0.13965946  0.68207479     0.75200
O107        O  0.95135552  0.16348089  0.55727335    -0.58600
C108        C  0.87937082  0.06531049  0.57413153     0.75100
C109        C  0.87827226  0.14496970  0.63967414     0.77500
Cd110      Cd  0.92009576  0.12438909  0.61151922     1.37500
O111        O  0.94029869  0.11213659  0.67647207    -0.57500
O112        O  0.87866949  0.12201355  0.65573111    -0.56300
C113        C  0.96442360  0.14896232  0.54378451     0.77500
O114        O  0.89738570  0.15849215  0.61005685    -0.58700
O115        O  0.96346231  0.15906763  0.65523793    -0.57100
O116        O  0.88120073  0.09015790  0.56142512    -0.57100
O117        O  0.95624469  0.12318945  0.56097317    -0.56300
O118        O  0.77538445  0.25957962  0.73896220    -0.57500
C119        C  0.70939566  0.18963229  0.66318212     0.75200
O120        O  0.77691593  0.17169661  0.73882160    -0.58600
C121        C  0.79214596  0.26257865  0.77059415     0.75100
C122        C  0.70530656  0.17608183  0.80010671     0.77500
Cd123      Cd  0.75087247  0.20260010  0.73408968     1.37500
O124        O  0.72947091  0.21709612  0.67255960    -0.57500
O125        O  0.71562699  0.20300463  0.78565111    -0.56300
C126        C  0.79271160  0.18218135  0.70542407     0.77500
O127        O  0.71689285  0.16070066  0.78475399    -0.58700
O128        O  0.70903054  0.16892447  0.68644856    -0.57100
O129        O  0.79066169  0.23802519  0.78395504    -0.57100
O130        O  0.78894416  0.20204969  0.68570369    -0.56300
O131        O  0.22452487  0.49333575  0.76728523    -0.57500
C132        C  0.29039521  0.48637234  0.84970836     0.75200
O133        O  0.22832273  0.40692622  0.77596723    -0.58600
C134        C  0.20978469  0.47894202  0.73444139     0.75100
C135        C  0.29725611  0.48442235  0.70829390     0.77500
Cd136      Cd  0.25198659  0.46366415  0.77501378     1.37500
O137        O  0.27687563  0.50032625  0.83569896    -0.57500
O138        O  0.29095598  0.50226170  0.72876391    -0.56300
C139        C  0.20837750  0.40247369  0.80410238     0.77500
O140        O  0.28279309  0.45618487  0.71891119    -0.58700
O141        O  0.28647594  0.46315218  0.82886732    -0.57100
O142        O  0.21412085  0.45734264  0.72223598    -0.57100
O143        O  0.20846981  0.42631366  0.81772033    -0.56300
O144        O  0.11046946  0.18445374  0.89918774    -0.57500
C145        C  0.04604607  0.18650666  0.82303030     0.75200
O146        O  0.04870919  0.21915543  0.94596769    -0.58600
C147        C  0.12767362  0.19921937  0.92997506     0.75100
C148        C  0.12442890  0.27765700  0.86391690     0.77500
Cd149      Cd  0.08474242  0.21532291  0.89474910     1.37500
O150        O  0.06561048  0.17887555  0.83433943    -0.57500
O151        O  0.12056798  0.25380640  0.84483906    -0.56300
C152        C  0.03938005  0.19263464  0.96177912     0.77500
O153        O  0.10967744  0.27281330  0.89834487    -0.62300
O154        O  0.04411393  0.20649210  0.84519653    -0.57100
O155        O  0.12647036  0.22272912  0.94212473    -0.57100
O156        O  0.05136472  0.17763299  0.94693856    -0.56300
O157        O  0.93167955  0.82321775  0.59993666    -0.57500
C158        C  0.85795391  0.81633577  0.68066693     0.75200
O159        O  0.83534548  0.78210947  0.55382714    -0.58600
C160        C  0.93355019  0.80600023  0.57197061     0.75100
C161        C  0.85404008  0.72991122  0.64044414     0.77500
Cd162      Cd  0.87452511  0.79111570  0.60918585     1.37500
O163        O  0.88594268  0.82831103  0.66903998    -0.57500
O164        O  0.87581629  0.75367405  0.65763370    -0.56300
C165        C  0.84960948  0.80971462  0.54062524     0.77500
O166        O  0.84187932  0.73454885  0.60819531    -0.58700
O167        O  0.83861825  0.79362218  0.65917683    -0.57100
O168        O  0.90861928  0.78156617  0.56360943    -0.57100
O169        O  0.87493181  0.82766412  0.55846636    -0.56300
O170        O  0.73902951  0.51342934  0.73052294    -0.57500
C171        C  0.81215848  0.51792415  0.65630989     0.75200
O172        O  0.82694720  0.60071380  0.72989296    -0.58600
C173        C  0.73744639  0.52677904  0.76376072     0.75100
C174        C  0.81980594  0.52297161  0.79501326     0.77500
Cd175      Cd  0.79611383  0.54359412  0.72718990     1.37500
O176        O  0.78430327  0.50598434  0.66835272    -0.57500
O177        O  0.79417444  0.50582690  0.77731970    -0.56300
C178        C  0.81444040  0.60515515  0.69787539     0.77500
O179        O  0.83489512  0.55058181  0.78183562    -0.58700
O180        O  0.83156673  0.54110845  0.67715519    -0.57100
O181        O  0.76268425  0.54819493  0.77806338    -0.57100
O182        O  0.79347817  0.58116215  0.68012303    -0.56300
O183        O  0.17986361  0.12273751  0.16348365    -0.57500
C184        C  0.20002336  0.07715939  0.06557590     0.75200
O185        O  0.22247548  0.17449189  0.04925780    -0.58600
C186        C  0.18960186  0.15062905  0.17369004     0.75100
C187        C  0.27769055  0.15369612  0.13444539     0.77500
Cd188      Cd  0.21633865  0.13556743  0.10354727     1.37500
O189        O  0.18487561  0.07874966  0.09674245    -0.57500
O190        O  0.25337943  0.13300828  0.15202322    -0.56300
C191        C  0.19433007  0.15983847  0.03812330     0.77500
O192        O  0.27359244  0.16637805  0.10229276    -0.58700
O193        O  0.22290303  0.10230927  0.05355827    -0.57100
O194        O  0.21188502  0.17074651  0.15209239    -0.57100
O195        O  0.17749166  0.13433861  0.05632424    -0.56300
O196        O  0.49874035  0.26764244  0.22739915    -0.57500
C197        C  0.48763351  0.19459446  0.14809314     0.75200
O198        O  0.45757347  0.17442979  0.27932945    -0.58600
C199        C  0.48202470  0.27139094  0.25418785     0.75100
C200        C  0.40257081  0.19075199  0.19149770     0.77500
Cd201      Cd  0.46455899  0.21106607  0.22117201     1.37500
O202        O  0.49752567  0.22269076  0.15712441    -0.57500
O203        O  0.42653957  0.21154004  0.17345510    -0.56300
C204        C  0.48576699  0.18856538  0.29014144     0.77500
O205        O  0.40720820  0.17895120  0.22419292    -0.58700
O206        O  0.46826435  0.17493117  0.17347439    -0.57100
O207        O  0.45671570  0.24753234  0.26341502    -0.57100
O208        O  0.50331559  0.21265492  0.26943850    -0.56300
O209        O  0.84688305  0.40886461  0.43254822    -0.57500
C210        C  0.85652204  0.47997424  0.51118496     0.75200
O211        O  0.93738343  0.49747603  0.43163608    -0.58600
C212        C  0.86065152  0.40565555  0.40099870     0.75100
C213        C  0.85844494  0.48903935  0.37151011     0.77500
Cd214      Cd  0.88038676  0.46509017  0.43726160     1.37500
O215        O  0.84687455  0.45203225  0.50143529    -0.57500
O216        O  0.88615167  0.50434149  0.38421614    -0.56300
C217        C  0.94320456  0.48540375  0.46286977     0.77500
O218        O  0.84174887  0.46314494  0.38872787    -0.58700
O219        O  0.87612653  0.49995696  0.48646492    -0.57100
O220        O  0.88477532  0.42956816  0.38843895    -0.57100
O221        O  0.91990963  0.46386950  0.48128837    -0.56300
O222        O  0.16266374  0.60424572  0.56828260    -0.57500
C223        C  0.15863388  0.53540464  0.48997259     0.75200
O224        O  0.11991235  0.50785246  0.61229235    -0.58600
C225        C  0.14654845  0.60731383  0.59675056     0.75100
C226        C  0.06634045  0.52433869  0.52823834     0.77500
Cd227      Cd  0.12858679  0.54799646  0.55929134     1.37500
O228        O  0.15669548  0.55971345  0.49071038    -0.57500
O229        O  0.08949100  0.54734838  0.51193021    -0.56300
C230        C  0.14649387  0.52346657  0.62872723     0.77500
O231        O  0.07209947  0.51198528  0.55916770    -0.58700
O232        O  0.14761167  0.51784119  0.52156063    -0.57100
O233        O  0.12112030  0.58338887  0.60536188    -0.57100
O234        O  0.16362962  0.55024978  0.61412556    -0.56300
O235        O  0.16293551  0.20963920  0.34133295    -0.57500
C236        C  0.06721535  0.19180121  0.42828485     0.75200
O237        O  0.12522747  0.17010406  0.43193175    -0.58600
C238        C  0.14411546  0.19026634  0.31536325     0.75100
C239        C  0.14643211  0.27272858  0.36369961     0.77500
Cd240      Cd  0.12592662  0.21052525  0.38937491     1.37500
O241        O  0.06918811  0.17832871  0.39545835    -0.57500
O242        O  0.12491834  0.24957381  0.34519828    -0.56300
C243        C  0.15006630  0.18691300  0.45162999     0.77500
O244        O  0.15823131  0.26696366  0.39538644    -0.58700
O245        O  0.09196429  0.21501125  0.44077947    -0.57100
O246        O  0.11564452  0.17914022  0.32383585    -0.57100
O247        O  0.16387262  0.21553230  0.44330150    -0.56300
O248        O  0.27000445  0.49183718  0.26818297    -0.57500
C249        C  0.20225510  0.49123922  0.35212424     0.75200
O250        O  0.17240415  0.45337850  0.23145227    -0.58600
C251        C  0.26929957  0.47510773  0.23750050     0.75100
C252        C  0.19168850  0.39936437  0.31001048     0.77500
Cd253      Cd  0.21342491  0.46140392  0.28151017     1.37500
O254        O  0.22696670  0.49000033  0.35003003    -0.57500
O255        O  0.21500581  0.42240229  0.32574111    -0.56300
C256        C  0.18814474  0.47963114  0.21418221     0.77500
O257        O  0.17780883  0.40526583  0.28121737    -0.58700
O258        O  0.18379889  0.47962113  0.32156979    -0.57100
O259        O  0.24321950  0.45213755  0.22927161    -0.57100
O260        O  0.21523602  0.49663473  0.22812941    -0.56300
O261        O  0.45130768  0.84415790  0.00613437    -0.57500
C262        C  0.40462660  0.86474567  0.10047379     0.75200
O263        O  0.50511254  0.88697386  0.11760589    -0.58600
C264        C  0.47929631  0.85339716  0.99687188     0.75100
C265        C  0.48378727  0.94139017  0.03354331     0.77500
Cd266      Cd  0.46420412  0.88042318  0.06652583     1.37500
O267        O  0.40730243  0.84819636  0.07222194    -0.57500
O268        O  0.46544399  0.91694064  0.01397794    -0.56300
C269        C  0.48932093  0.86023442  0.13344369     0.77500
O270        O  0.49350793  0.93758699  0.06871991    -0.58700
O271        O  0.42926829  0.88886472  0.11087625    -0.57100
O272        O  0.49930910  0.87441904  0.02009029    -0.57100
O273        O  0.46190163  0.84427845  0.12040238    -0.56300
O274        O  0.59289786  0.15186118  0.93088188    -0.57500
C275        C  0.52023244  0.14820510  0.00024583     0.75200
O276        O  0.49980217  0.11666601  0.87267239    -0.58600
C277        C  0.59649309  0.13750056  0.90043802     0.75100
C278        C  0.51596865  0.06083300  0.96092541     0.77500
Cd279      Cd  0.53629707  0.12219479  0.93013671     1.37500
O280        O  0.54827164  0.15840641  0.99022068    -0.57500
O281        O  0.53564966  0.08501150  0.97977716    -0.56300
C282        C  0.51534182  0.14472065  0.86140792     0.77500
O283        O  0.50485216  0.06498983  0.92722445    -0.58700
O284        O  0.50048118  0.12672003  0.97738335    -0.57100
O285        O  0.57216376  0.11530089  0.88508229    -0.57100
O286        O  0.54004995  0.16133932  0.88137334    -0.56300
O287        O  0.82866351  0.93776878  0.90174664    -0.57500
C288        C  0.81917224  0.86398560  0.82179444     0.75200
O289        O  0.78911643  0.83925922  0.94246935    -0.58600
C290        C  0.81329777  0.94006538  0.93210236     0.75100
C291        C  0.73300533  0.86229019  0.86598660     0.77500
Cd292      Cd  0.79502422  0.88091247  0.89392262     1.37500
O293        O  0.82809474  0.89214440  0.82939750    -0.57500
O294        O  0.75691107  0.88192773  0.84655006    -0.56300
C295        C  0.81574081  0.85502365  0.95861105     0.77500
O296        O  0.73781527  0.85126491  0.89932274    -0.58700
O297        O  0.79975356  0.84478333  0.84751739    -0.57100
O298        O  0.78913788  0.91541176  0.94267099    -0.57100
O299        O  0.83161648  0.88268462  0.94645085    -0.56300
O300        O  0.51459446  0.78631256  0.84489128    -0.57500
C301        C  0.52636006  0.74019208  0.74041265     0.75200
O302        O  0.55205018  0.83752690  0.72264061    -0.58600
C303        C  0.52129237  0.81397730  0.85165138     0.75100
C304        C  0.60730778  0.82024708  0.80828314     0.77500
Cd305      Cd  0.54525633  0.79928130  0.77836100     1.37500
O306        O  0.51143464  0.74299939  0.77082462    -0.57500
O307        O  0.58369739  0.79788354  0.82474927    -0.56300
C308        C  0.52359866  0.82396038  0.71312565     0.77500
O309        O  0.60225786  0.83284964  0.77688753    -0.58700
O310        O  0.55077356  0.76440042  0.72933786    -0.57100
O311        O  0.53758018  0.83357399  0.82400400    -0.57100
O312        O  0.50617489  0.79952441  0.73331172    -0.56300
O313        O  0.16359792  0.60296501  0.00046041    -0.57500
C314        C  0.14628560  0.53909102  0.09782367     0.75200
O315        O  0.12297792  0.61255045  0.11915109    -0.58600
C316        C  0.15304528  0.62054103  0.99073586     0.75100
C317        C  0.06679357  0.54039941  0.03148799     0.77500
Cd318      Cd  0.12860418  0.58065318  0.06250393     1.37500
O319        O  0.16108273  0.55655052  0.06719062    -0.57500
O320        O  0.09055977  0.54223945  0.01444275    -0.56300
C321        C  0.15140563  0.62653612  0.12880721     0.77500
O322        O  0.07161127  0.55679825  0.06428618    -0.58700
O323        O  0.12213429  0.53932724  0.10935304    -0.57100
O324        O  0.13232728  0.61969985  0.01450121    -0.57100
O325        O  0.16802005  0.61840624  0.10870101    -0.56300
O326        O  0.84573099  0.44088077  0.93600247    -0.57500
C327        C  0.85390761  0.37790347  0.01258893     0.75200
O328        O  0.88677765  0.38492469  0.88664893    -0.58600
C329        C  0.85936423  0.45737021  0.90407491     0.75100
C330        C  0.94139692  0.46078409  0.96925614     0.77500
Cd331      Cd  0.87935997  0.41758756  0.94025894     1.37500
O332        O  0.84517968  0.39690759  0.00280050    -0.57500
O333        O  0.91744064  0.45818698  0.98667255    -0.56300
C334        C  0.85874208  0.37093097  0.87506653     0.77500
O335        O  0.93665682  0.44354356  0.93745599    -0.58700
O336        O  0.87426481  0.37782294  0.98891025    -0.57100
O337        O  0.88248522  0.45597888  0.89052018    -0.57100
O338        O  0.84135986  0.37923500  0.89266310    -0.56300
O339        O  0.17825043  0.10596582  0.59072137    -0.57500
C340        C  0.18564974  0.04300544  0.66991625     0.75200
O341        O  0.21932538  0.05265326  0.54365632    -0.58600
C342        C  0.19247637  0.12258938  0.55912930     0.75100
C343        C  0.27484145  0.12676045  0.62576739     0.77500
Cd344      Cd  0.21244667  0.08412716  0.59859228     1.37500
O345        O  0.18230278  0.06638621  0.66561703    -0.57500
O346        O  0.25145849  0.12681744  0.64107784    -0.56300
C347        C  0.19155344  0.04008994  0.53098302     0.77500
O348        O  0.26925654  0.10690246  0.59721368    -0.58700
O349        O  0.20154697  0.03936733  0.64188798    -0.57100
O350        O  0.21688346  0.12274740  0.54796106    -0.57100
O351        O  0.17433718  0.04831198  0.54923675    -0.56300
O352        O  0.49458124  0.27708123  0.65634793    -0.57500
C353        C  0.47454483  0.21010926  0.75361950     0.75200
O354        O  0.45310420  0.28667239  0.77324464    -0.58600
C355        C  0.48543305  0.29597925  0.64768572     0.75100
C356        C  0.39751432  0.21287296  0.69076337     0.77500
Cd357      Cd  0.45970689  0.25428422  0.71920818     1.37500
O358        O  0.49136117  0.22878445  0.72501071    -0.57500
O359        O  0.42107832  0.21503651  0.67252242    -0.56300
C360        C  0.47914607  0.29591976  0.79050646     0.77500
O361        O  0.40285042  0.23008610  0.72268493    -0.58700
O362        O  0.45074732  0.21135035  0.76386859    -0.57100
O363        O  0.46535396  0.29554925  0.67243580    -0.57100
O364        O  0.49561148  0.28569947  0.77508348    -0.56300
O365        O  0.17675396  0.71286279  0.83365389    -0.57500
C366        C  0.26969716  0.79542701  0.74652744     0.75200
O367        O  0.17063860  0.71896925  0.73144213    -0.58600
C368        C  0.19655856  0.70885428  0.85307007     0.75100
C369        C  0.19299205  0.79615944  0.81062946     0.77500
Cd370      Cd  0.21122525  0.75212373  0.78370292     1.37500
O371        O  0.26867137  0.78108833  0.78009771    -0.57500
O372        O  0.21431054  0.79393092  0.82890340    -0.56300
C373        C  0.18671480  0.70886074  0.71405496     0.77500
O374        O  0.17948439  0.77721329  0.78088129    -0.58700
O375        O  0.24394434  0.79006077  0.73189665    -0.57100
O376        O  0.22428307  0.72575826  0.84105641    -0.57100
O377        O  0.21364667  0.71921835  0.72862611    -0.56300
O378        O  0.07784480  0.90202611  0.89959963    -0.57500
C379        C  0.14491422  0.96377219  0.81664073     0.75200
O380        O  0.17268903  0.95862778  0.94527337    -0.58600
C381        C  0.07549421  0.88436978  0.92975893     0.75100
C382        C  0.15881049  0.88629670  0.86572872     0.77500
Cd383      Cd  0.13444489  0.92571951  0.89068363     1.37500
O384        O  0.12013500  0.93821328  0.82087153    -0.57500
O385        O  0.13626373  0.88621532  0.84753411    -0.56300
C386        C  0.15703041  0.97093408  0.95717909     0.77500
O387        O  0.17093732  0.90542822  0.89569349    -0.58700
O388        O  0.16433916  0.97153970  0.84617922    -0.57100
O389        O  0.10010085  0.88462107  0.93985842    -0.57100
O390        O  0.13180163  0.96225725  0.93822835    -0.56300
O391        O  0.55210795  0.39574222  0.49224465    -0.57500
C392        C  0.60039926  0.46501757  0.39793444     0.75200
O393        O  0.50354370  0.38953513  0.37478397    -0.58600
C394        C  0.52409919  0.37967792  0.50367303     0.75100
C395        C  0.52172474  0.46348425  0.46358898     0.77500
Cd396      Cd  0.54072123  0.42090138  0.43191225     1.37500
O397        O  0.59813024  0.44861263  0.42977893    -0.57500
O398        O  0.54277550  0.45998889  0.48009888    -0.56300
C399        C  0.51836130  0.37611413  0.36391061     0.77500
O400        O  0.50891438  0.44698094  0.43123311    -0.58700
O401        O  0.57528761  0.46126557  0.38306460    -0.57100
O402        O  0.50464700  0.38248490  0.48150156    -0.57100
O403        O  0.54304018  0.38385235  0.38389003    -0.56300
O404        O  0.40691341  0.56532703  0.57290402    -0.57500
C405        C  0.47849207  0.62987100  0.49312275     0.75200
O406        O  0.50102612  0.61991066  0.62183117    -0.58600
C407        C  0.40460964  0.54649430  0.60144484     0.75100
C408        C  0.48367278  0.54850455  0.53009271     0.77500
Cd409      Cd  0.46351562  0.58918028  0.56454273     1.37500
O410        O  0.45065665  0.60978726  0.50091811    -0.57500
O411        O  0.46128210  0.55052680  0.51528553    -0.56300
C412        C  0.48690066  0.63421932  0.63181896     0.77500
O413        O  0.49694835  0.56536480  0.56199334    -0.58700
O414        O  0.49833780  0.63098385  0.51886478    -0.57100
O415        O  0.42932362  0.54682204  0.61104245    -0.57100
O416        O  0.46241370  0.62688259  0.61159561    -0.56300
O417        O  0.89149002  0.07230577  0.18137899    -0.57500
C418        C  0.93356532  0.12909257  0.07241559     0.75200
O419        O  0.83547460  0.05339539  0.06277933    -0.58600
C420        C  0.86662143  0.04674345  0.18515573     0.75100
C421        C  0.85357897  0.12821081  0.14023706     0.77500
Cd422      Cd  0.87615505  0.08732322  0.11392226     1.37500
O423        O  0.93295842  0.11247859  0.10309082    -0.57500
O424        O  0.87736106  0.12936911  0.15607177    -0.56300
C425        C  0.85177404  0.04338996  0.04571881     0.77500
O426        O  0.83963650  0.10738666  0.11279008    -0.58700
O427        O  0.90803827  0.12695760  0.06289806    -0.57100
O428        O  0.84686855  0.04025756  0.15636979    -0.57100
O429        O  0.87898155  0.05441391  0.05960204    -0.56300
O430        O  0.73463421  0.22741249  0.23010644    -0.57500
C431        C  0.81025125  0.29446485  0.15552813     0.75200
O432        O  0.82857620  0.28305680  0.28488895    -0.58600
C433        C  0.73268522  0.21130739  0.26211029     0.75100
C434        C  0.81476743  0.21428075  0.19809682     0.77500
Cd435      Cd  0.79225169  0.25403563  0.22684175     1.37500
O436        O  0.78203122  0.27926668  0.16628952    -0.57500
O437        O  0.79212972  0.21468005  0.18076740    -0.56300
C438        C  0.81632868  0.29942948  0.29272893     0.77500
O439        O  0.82665502  0.23211025  0.22942946    -0.58700
O440        O  0.82909831  0.29105044  0.17811778    -0.57100
O441        O  0.75785997  0.21407662  0.27516704    -0.57100
O442        O  0.79299264  0.29397357  0.27092371    -0.56300
O443        O  0.82631714  0.93554583  0.32737865    -0.57500
C444        C  0.81101795  0.87514138  0.42996515     0.75200
O445        O  0.78784760  0.95040586  0.44671385    -0.58600
C446        C  0.82537553  0.96031146  0.32396478     0.75100
C447        C  0.73204084  0.87847095  0.36287737     0.77500
Cd448      Cd  0.79476514  0.91791062  0.39323650     1.37500
O449        O  0.82531714  0.89139585  0.39815592    -0.57500
O450        O  0.75540138  0.88003640  0.34491588    -0.56300
C451        C  0.81472495  0.96138966  0.46216703     0.77500
O452        O  0.73772422  0.89556005  0.39499147    -0.58700
O453        O  0.78851786  0.87778458  0.44307019    -0.57100
O454        O  0.81107881  0.96559946  0.35270638    -0.57100
O455        O  0.83139888  0.95139400  0.44662777    -0.56300
O456        O  0.51518321  0.77476507  0.26859921    -0.57500
C457        C  0.52222159  0.71026350  0.34631173     0.75200
O458        O  0.55219122  0.71060215  0.22751071    -0.58600
C459        C  0.52858771  0.79044181  0.23589462     0.75100
C460        C  0.60894258  0.79332618  0.29779261     0.77500
Cd461      Cd  0.54655997  0.74873651  0.27214935     1.37500
O462        O  0.50847060  0.72362185  0.33111317    -0.57500
O463        O  0.58526787  0.79011416  0.31697240    -0.56300
C464        C  0.52696288  0.70136630  0.20804296     0.77500
O465        O  0.60369140  0.77594944  0.26605446    -0.58700
O466        O  0.54608006  0.71455221  0.32682813    -0.57100
O467        O  0.55032965  0.78701492  0.22140195    -0.57100
O468        O  0.51204638  0.71488742  0.21691530    -0.56300
C469        C  0.69689641  0.84479597  0.30610554    -0.20000
C470        C  0.70013572  0.85766258  0.34656843    -0.06500
C471        C  0.67305497  0.84986934  0.37010139     0.14300
C472        C  0.64397056  0.82913582  0.35299170    -0.20000
C473        C  0.64075489  0.81585179  0.31282916    -0.06500
C474        C  0.66778780  0.82433960  0.28879731     0.14300
C475        C  0.66645302  0.81257645  0.24460709    -0.23400
H476        H  0.71740255  0.85089382  0.28757067     0.15600
H477        H  0.62348173  0.82300300  0.37158045     0.15600
C478        C  0.67429535  0.86271244  0.41355069    -0.23300
H479        H  0.68973712  0.82279645  0.23002722     0.05900
H480        H  0.65220051  0.81872960  0.22439855     0.09100
H481        H  0.65654823  0.78718051  0.24502146     0.09100
H482        H  0.68502000  0.88819001  0.41192890     0.09100
H483        H  0.68777186  0.85635981  0.43499847     0.09100
H484        H  0.65091379  0.85353974  0.42746078     0.05800
C485        C  0.84386341  0.99335272  0.21291428    -0.20000
C486        C  0.86019085  0.02523650  0.22105154    -0.06500
C487        C  0.86733576  0.03552027  0.26328281     0.14300
C488        C  0.85645302  0.01373306  0.29622967    -0.20000
C489        C  0.83943366  0.98190398  0.28803720    -0.06500
C490        C  0.83371950  0.97158341  0.24578032     0.14300
C491        C  0.81549224  0.93771092  0.23522618    -0.23400
H492        H  0.83848593  0.98542310  0.18057504     0.15600
H493        H  0.86083037  0.02158859  0.32867460     0.15600
C494        C  0.88508670  0.06937135  0.27396496    -0.23300
H495        H  0.81225870  0.93376748  0.20067727     0.05900
H496        H  0.79229755  0.92720735  0.25012707     0.09100
H497        H  0.82785868  0.92590850  0.24685679     0.09100
H498        H  0.87281716  0.08104682  0.26145944     0.09100
H499        H  0.90857879  0.08000987  0.26001896     0.09100
H500        H  0.88769635  0.07327133  0.30856956     0.05800
C501        C  0.86319072  0.17553938  0.17896714    -0.20000
C502        C  0.84331562  0.15041147  0.15331898    -0.06500
C503        C  0.81468428  0.14748737  0.14107294     0.14300
C504        C  0.80649080  0.16891376  0.15592835    -0.20000
C505        C  0.82593593  0.19341696  0.18262565    -0.06500
C506        C  0.85509651  0.19713061  0.19349241     0.14300
C507        C  0.87824224  0.22399753  0.21954328    -0.23400
H508        H  0.88542980  0.17844704  0.18777745     0.15600
H509        H  0.78433379  0.16615419  0.14697351     0.15600
C510        C  0.79223949  0.12180081  0.11284998    -0.23300
H511        H  0.90036886  0.22399987  0.22283451     0.05900
H512        H  0.86904890  0.22280018  0.25178689     0.09100
H513        H  0.88342589  0.24603402  0.20421348     0.09100
H514        H  0.78517330  0.09913467  0.12769195     0.09100
H515        H  0.80305418  0.12333706  0.08167155     0.09100
H516        H  0.77096136  0.12305616  0.10720599     0.05800
C517        C  0.52016357  0.66804538  0.44722656    -0.20000
C518        C  0.48833616  0.65079648  0.45576583    -0.06500
C519        C  0.46763748  0.65405710  0.42853941     0.14300
C520        C  0.47938806  0.67399103  0.39350722    -0.20000
C521        C  0.51117400  0.69051670  0.38460068    -0.06500
C522        C  0.53183907  0.68766550  0.41226027     0.14300
C523        C  0.56640761  0.70572696  0.40608069    -0.23400
H524        H  0.53628012  0.66597501  0.46786644     0.15600
H525        H  0.46357822  0.67626239  0.37247258     0.15600
C526        C  0.43327506  0.63698287  0.43604045    -0.23300
H527        H  0.57891398  0.70227491  0.43253737     0.05900
H528        H  0.57436292  0.73076885  0.40424862     0.09100
H529        H  0.57289626  0.69810916  0.37685676     0.09100
H530        H  0.42815093  0.64296209  0.46762387     0.09100
H531        H  0.42412524  0.61173610  0.43392677     0.09100
H532        H  0.42088319  0.64305024  0.41226258     0.05800
C533        C  0.49308469  0.49239281  0.45711239    -0.20000
C534        C  0.51270932  0.48574339  0.48101542    -0.06500
C535        C  0.52325336  0.50062865  0.52069261     0.14300
C536        C  0.51347602  0.52093648  0.53526176    -0.20000
C537        C  0.49353652  0.52723787  0.51166418    -0.06500
C538        C  0.48359008  0.51300793  0.47152743     0.14300
C539        C  0.46353803  0.51972062  0.44297092    -0.23400
H540        H  0.48521572  0.48152044  0.42656758     0.15600
H541        H  0.52135982  0.53183060  0.56579121     0.15600
C542        C  0.54455560  0.49525612  0.54856051    -0.23300
H543        H  0.45947070  0.50777987  0.41211336     0.05900
H544        H  0.47494443  0.54488026  0.43658227     0.09100
H545        H  0.44062563  0.51161248  0.45778589     0.09100
H546        H  0.56692823  0.50307195  0.53225999     0.09100
H547        H  0.53368069  0.47040194  0.55667674     0.09100
H548        H  0.54968595  0.50831249  0.57863052     0.05800
C549        C  0.19447216  0.83393900  0.86339904    -0.20000
C550        C  0.18460051  0.81973730  0.82370443    -0.06500
C551        C  0.16759970  0.82885189  0.79749135     0.14300
C552        C  0.16053038  0.85114616  0.81197101    -0.20000
C553        C  0.16964146  0.86473702  0.85204126    -0.06500
C554        C  0.18712986  0.85610897  0.87802306     0.14300
C555        C  0.19739394  0.86927628  0.92162901    -0.23400
H556        H  0.20761587  0.82725436  0.88358157     0.15600
H557        H  0.14744041  0.85784945  0.79170256     0.15600
C558        C  0.15696758  0.81566583  0.75394647    -0.23300
H559        H  0.20994974  0.85914150  0.93783557     0.05900
H560        H  0.17697945  0.86429836  0.94121855     0.09100
H561        H  0.21325341  0.89457114  0.91967275     0.09100
H562        H  0.14021149  0.79057809  0.75607083     0.09100
H563        H  0.17711285  0.81971615  0.73440653     0.09100
H564        H  0.14519330  0.82652268  0.73749078     0.05800
C565        C  0.53164304  0.34451855  0.55204849    -0.20000
C566        C  0.51439582  0.35863361  0.54083079    -0.06500
C567        C  0.48816773  0.35236411  0.56534984     0.14300
C568        C  0.47976696  0.33200696  0.59963358    -0.20000
C569        C  0.49655938  0.31734178  0.61059997    -0.06500
C570        C  0.52299936  0.32381313  0.58629992     0.14300
C571        C  0.54248836  0.30941318  0.59626439    -0.23400
H572        H  0.55178785  0.34935559  0.53345320     0.15600
H573        H  0.45957279  0.32738985  0.61793886     0.15600
C574        C  0.46924387  0.36765853  0.55663988    -0.23300
H575        H  0.56265288  0.31777428  0.57473488     0.05900
H576        H  0.52854415  0.28398125  0.59267915     0.09100
H577        H  0.55140966  0.31533541  0.62899212     0.09100
H578        H  0.45750105  0.35997099  0.52570308     0.09100
H579        H  0.48438098  0.39313223  0.55679880     0.09100
H580        H  0.45100071  0.36167855  0.58081319     0.05800
C581        C  0.16905472  0.03305191  0.74506833    -0.20000
C582        C  0.17236378  0.02144899  0.70622373    -0.06500
C583        C  0.16350982  0.98975880  0.70324612     0.14300
C584        C  0.15299936  0.97107175  0.73947286    -0.20000
C585        C  0.15164512  0.98327293  0.77867135    -0.06500
C586        C  0.15902898  0.01440604  0.78135519     0.14300
C587        C  0.15588029  0.02785183  0.82235209    -0.23400
H588        H  0.17523737  0.05706817  0.74738731     0.15600
H589        H  0.14698868  0.94707824  0.73756747     0.15600
C590        C  0.16470582  0.97523935  0.66208620    -0.23300
H591        H  0.16161791  0.05222577  0.81862382     0.05900
H592        H  0.17169977  0.02722050  0.84632126     0.09100
H593        H  0.13171867  0.01432831  0.83391140     0.09100
H594        H  0.18898010  0.98511341  0.65142231     0.09100
H595        H  0.15112756  0.97925204  0.63776775     0.09100
H596        H  0.15489297  0.94992378  0.66518516     0.05800
C597        C  0.30990772  0.16948184  0.67358737    -0.20000
C598        C  0.30664930  0.14873743  0.64127964    -0.06500
C599        C  0.33356822  0.14939063  0.62561552     0.14300
C600        C  0.36251679  0.17056826  0.64252767    -0.20000
C601        C  0.36574615  0.19116155  0.67500023    -0.06500
C602        C  0.33883840  0.19044385  0.69080244     0.14300
C603        C  0.34004214  0.21155638  0.72565434    -0.23400
H604        H  0.28953748  0.16922697  0.68588215     0.15600
H605        H  0.38289542  0.17081817  0.63027265     0.15600
C606        C  0.33238364  0.12793976  0.59128580    -0.23300
H607        H  0.31678989  0.20797166  0.73339889     0.05900
H608        H  0.35469258  0.23599527  0.71589973     0.09100
H609        H  0.34940993  0.20701314  0.75479047     0.09100
H610        H  0.32239857  0.13171264  0.56218032     0.09100
H611        H  0.31830476  0.10362128  0.60184940     0.09100
H612        H  0.35570628  0.13186394  0.58316968     0.05800
C613        C  0.85506830  0.33849740  0.05850860    -0.20000
C614        C  0.84159091  0.35670346  0.04948148    -0.06500
C615        C  0.81712221  0.35380350  0.07550265     0.14300
C616        C  0.80702084  0.33288998  0.10944528    -0.20000
C617        C  0.82100545  0.31525902  0.11859297    -0.06500
C618        C  0.84532181  0.31805551  0.09265481     0.14300
C619        C  0.86068761  0.29900579  0.09986685    -0.23400
H620        H  0.87365715  0.34033058  0.03883600     0.15600
H621        H  0.78845270  0.33070602  0.12951586     0.15600
C622        C  0.80140860  0.37242835  0.06808816    -0.23300
H623        H  0.87759920  0.30259267  0.07462153     0.05900
H624        H  0.84304282  0.27409691  0.10033023     0.09100
H625        H  0.87349120  0.30558719  0.13014332     0.09100
H626        H  0.79081263  0.36740219  0.03623413     0.09100
H627        H  0.81840806  0.39741034  0.07104363     0.09100
H628        H  0.78274212  0.36688499  0.09141457     0.05800
C629        C  0.15489321  0.66662833  0.89487121    -0.20000
C630        C  0.18680354  0.68537271  0.88754071    -0.06500
C631        C  0.20762518  0.68102966  0.91318845     0.14300
C632        C  0.19592684  0.65881036  0.94567261    -0.20000
C633        C  0.16413034  0.64129837  0.95376284    -0.06500
C634        C  0.14333622  0.64488711  0.92752792     0.14300
C635        C  0.10879009  0.62539307  0.93310804    -0.23400
H636        H  0.13861213  0.66915407  0.87514906     0.15600
H637        H  0.21174362  0.65583018  0.96582401     0.15600
C638        C  0.24209194  0.69990567  0.90739750    -0.23300
H639        H  0.09605124  0.62967559  0.90779953     0.05900
H640        H  0.10163273  0.63083407  0.96356560     0.09100
H641        H  0.10177980  0.60054214  0.93218513     0.09100
H642        H  0.24989849  0.72474629  0.91189712     0.09100
H643        H  0.24849493  0.69603722  0.87536381     0.09100
H644        H  0.25461833  0.69352691  0.93055588     0.05800
C645        C  0.00987499  0.51859337  0.03648405    -0.20000
C646        C  0.03503548  0.52035002  0.01420457    -0.06500
C647        C  0.02910242  0.50339129  0.97604585     0.14300
C648        C  0.99847113  0.48463626  0.96244626    -0.20000
C649        C  0.97325500  0.48234835  0.98520027    -0.06500
C650        C  0.97926565  0.50015842  0.02257520     0.14300
C651        C  0.95387199  0.50011076  0.04841782    -0.23400
H652        H  0.01412495  0.53177409  0.06530966     0.15600
H653        H  0.99423418  0.47151652  0.93356599     0.15600
C654        C  0.05461438  0.50482382  0.94890557    -0.23300
H655        H  0.96304433  0.51561183  0.07622720     0.05900
H656        H  0.93796259  0.47651295  0.06036664     0.09100
H657        H  0.94100224  0.50835131  0.02891040     0.09100
H658        H  0.06765240  0.49593187  0.96670136     0.09100
H659        H  0.07034723  0.52896828  0.93870811     0.09100
H660        H  0.04554217  0.49057155  0.91995587     0.05800
C661        C  0.53798895  0.70485247  0.69930462    -0.20000
C662        C  0.51574406  0.71060743  0.71773577    -0.06500
C663        C  0.48408299  0.68952867  0.71061143     0.14300
C664        C  0.47566237  0.66390098  0.68444949    -0.20000
C665        C  0.49787343  0.65878280  0.66453992    -0.06500
C666        C  0.52951934  0.67924602  0.67286146     0.14300
C667        C  0.55455744  0.67531521  0.65236304    -0.23400
H668        H  0.56224226  0.72100387  0.70470740     0.15600
H669        H  0.45139466  0.64825061  0.67826140     0.15600
C670        C  0.45899181  0.69479012  0.72809546    -0.23300
H671        H  0.57795434  0.69398897  0.66149142     0.05900
H672        H  0.55269677  0.67584100  0.61751736     0.09100
H673        H  0.55240180  0.65303812  0.66222966     0.09100
H674        H  0.46251892  0.71741241  0.71712094     0.09100
H675        H  0.45925793  0.69429356  0.76306993     0.09100
H676        H  0.43568637  0.67671047  0.71763079     0.05800
C677        C  0.80088677  0.97096037  0.98164312    -0.20000
C678        C  0.82293154  0.96933301  0.95567765    -0.06500
C679        C  0.85376624  0.99421455  0.95634606     0.14300
C680        C  0.86182966  0.01888138  0.98435396    -0.20000
C681        C  0.84016514  0.01948117  0.01209617    -0.06500
C682        C  0.80903963  0.99553538  0.00985551     0.14300
C683        C  0.78456576  0.99465338  0.03863557    -0.23400
H684        H  0.77717769  0.95224178  0.98103167     0.15600
H685        H  0.88562847  0.03739754  0.98568351     0.15600
C686        C  0.87879278  0.99448443  0.92943130    -0.23300
H687        H  0.76174182  0.97370772  0.03340387     0.05900
H688        H  0.78186946  0.01505164  0.03272627     0.09100
H689        H  0.79109619  0.99452407  0.07206267     0.09100
H690        H  0.87293512  0.99389318  0.89556923     0.09100
H691        H  0.88143051  0.97428488  0.93722495     0.09100
H692        H  0.90150467  0.01558481  0.93464755     0.05800
C693        C  0.67597052  0.83277691  0.87642985    -0.20000
C694        C  0.70110975  0.85251176  0.85074918    -0.06500
C695        C  0.69499205  0.86195290  0.81138737     0.14300
C696        C  0.66427761  0.85107009  0.79893458    -0.20000
C697        C  0.63916947  0.83099655  0.82432639    -0.06500
C698        C  0.64525062  0.82199496  0.86401654     0.14300
C699        C  0.61979297  0.80147817  0.89410611    -0.23400
H700        H  0.68033088  0.82564299  0.90669169     0.15600
H701        H  0.65987068  0.85817506  0.76867786     0.15600
C702        C  0.72037090  0.88325955  0.78175297    -0.23300
H703        H  0.62901327  0.79805817  0.92422389     0.05900
H704        H  0.60525853  0.77835541  0.87984684     0.09100
H705        H  0.60544293  0.81206994  0.90183230     0.09100
H706        H  0.73447388  0.87274397  0.77228760     0.09100
H707        H  0.73512953  0.90586272  0.79726753     0.09100
H708        H  0.71110468  0.88776868  0.75246178     0.05800
C709        C  0.47311518  0.14863339  0.82654630    -0.20000
C710        C  0.50462392  0.15811412  0.82835912    -0.06500
C711        C  0.52541042  0.18199886  0.80125930     0.14300
C712        C  0.51436274  0.19695793  0.77502492    -0.20000
C713        C  0.48326966  0.18942413  0.77599125    -0.06500
C714        C  0.46214485  0.16417646  0.80128988     0.14300
C715        C  0.42810563  0.15357972  0.80269631    -0.23400
H716        H  0.45717906  0.13009507  0.84701354     0.15600
H717        H  0.53057767  0.21587563  0.75532371     0.15600
C718        C  0.55929624  0.19195944  0.79980389    -0.23300
H719        H  0.41502777  0.13219972  0.82165352     0.05900
H720        H  0.41845446  0.14860038  0.77027763     0.09100
H721        H  0.42430150  0.17149621  0.81757763     0.09100
H722        H  0.56216910  0.17170023  0.79343857     0.09100
H723        H  0.57053165  0.20278538  0.83011704     0.09100
H724        H  0.57156489  0.20923438  0.77455894     0.05800
C725        C  0.48333443  0.82912253  0.19747580    -0.20000
C726        C  0.50207027  0.84704756  0.16394266    -0.06500
C727        C  0.53054095  0.84826832  0.15669207     0.14300
C728        C  0.53885118  0.83048699  0.18187366    -0.20000
C729        C  0.51953595  0.81132659  0.21434802    -0.06500
C730        C  0.49173679  0.81148777  0.22304841     0.14300
C731        C  0.47020976  0.79256430  0.25812057    -0.23400
H732        H  0.46149188  0.82825883  0.20292683     0.15600
H733        H  0.56033979  0.83094214  0.17516641     0.15600
C734        C  0.55143829  0.86677921  0.12082786    -0.23300
H735        H  0.44975515  0.79570701  0.26020862     0.05900
H736        H  0.48244158  0.79972048  0.28882136     0.09100
H737        H  0.46168180  0.76768182  0.25256373     0.09100
H738        H  0.55935020  0.89162266  0.12546765     0.09100
H739        H  0.53886639  0.85889293  0.09042937     0.09100
H740        H  0.57224873  0.86423372  0.11880276     0.05800
C741        C  0.51926600  0.86016128  0.94523202    -0.20000
C742        C  0.48904761  0.84157208  0.96037090    -0.06500
C743        C  0.46974692  0.81282657  0.94048533     0.14300
C744        C  0.48117079  0.80401110  0.90576328    -0.20000
C745        C  0.51094894  0.82331622  0.88980867    -0.06500
C746        C  0.53042272  0.85164542  0.91028118     0.14300
C747        C  0.56329603  0.87277666  0.89621770    -0.23400
H748        H  0.53438465  0.88213011  0.96049575     0.15600
H749        H  0.46633534  0.78203447  0.89012320     0.15600
C750        C  0.43741438  0.79123036  0.95577630    -0.23300
H751        H  0.57574750  0.89271828  0.91788332     0.05900
H752        H  0.56364658  0.88226187  0.86448790     0.09100
H753        H  0.57609987  0.85992932  0.89550395     0.09100
H754        H  0.42295561  0.80217426  0.95206945     0.09100
H755        H  0.43792681  0.78537570  0.98941415     0.09100
H756        H  0.42626213  0.76933112  0.93753536     0.05800
C757        C  0.51596901  0.02824613  0.01988253    -0.20000
C758        C  0.50699902  0.02977823  0.97833672    -0.06500
C759        C  0.49094377  0.00208712  0.95488938     0.14300
C760        C  0.48398248  0.97393631  0.97390418    -0.20000
C761        C  0.49282682  0.97239349  0.01560326    -0.06500
C762        C  0.50935515  0.00020927  0.03872778     0.14300
C763        C  0.52010548  0.00092836  0.08333393    -0.23400
H764        H  0.52838383  0.04931386  0.03806691     0.15600
H765        H  0.47158685  0.95286855  0.95571866     0.15600
C766        C  0.48156959  0.00179646  0.90963999    -0.23300
H767        H  0.53236567  0.02470779  0.09639327     0.05900
H768        H  0.53645424  0.99199769  0.08418762     0.09100
H769        H  0.49997866  0.98682343  0.10407694     0.09100
H770        H  0.50228944  0.01653162  0.89017231     0.09100
H771        H  0.46492558  0.01031532  0.90761626     0.09100
H772        H  0.47018187  0.97819930  0.89598126     0.05800
C773        C  0.19769544  0.51462322  0.15395785    -0.20000
C774        C  0.17609649  0.49079521  0.17985320    -0.06500
C775        C  0.14428846  0.48040146  0.17442078     0.14300
C776        C  0.13524711  0.49528129  0.14493754    -0.20000
C777        C  0.15703580  0.52050345  0.12110568    -0.06500
C778        C  0.18871665  0.52973282  0.12486951     0.14300
C779        C  0.21350698  0.55656061  0.10042444    -0.23400
H780        H  0.22205154  0.52232304  0.15759531     0.15600
H781        H  0.11095853  0.48801315  0.14183913     0.15600
C782        C  0.11978419  0.45495781  0.20101007    -0.23300
H783        H  0.23696579  0.56076780  0.10820754     0.05900
H784        H  0.21293210  0.57794292  0.10803093     0.09100
H785        H  0.20994395  0.55177885  0.06609132     0.09100
H786        H  0.12395316  0.46137074  0.23487997     0.09100
H787        H  0.12004686  0.43316728  0.19558417     0.09100
H788        H  0.09628645  0.45058746  0.19312581     0.05800
C789        C  0.14017774  0.14654659  0.50406479    -0.20000
C790        C  0.16184724  0.17303978  0.48232084    -0.06500
C791        C  0.19368495  0.18365891  0.48755838     0.14300
C792        C  0.20288896  0.16720228  0.51396972    -0.20000
C793        C  0.18118008  0.14045825  0.53533431    -0.06500
C794        C  0.14932693  0.13003418  0.53033164     0.14300
C795        C  0.12471535  0.10069966  0.55056541    -0.23400
H796        H  0.11574976  0.13828842  0.49974751     0.15600
H797        H  0.22728124  0.17500098  0.51739028     0.15600
C798        C  0.21801914  0.21130703  0.46393107    -0.23300
H799        H  0.10112204  0.09542801  0.54144038     0.05900
H800        H  0.12633385  0.10294860  0.58540909     0.09100
H801        H  0.12752542  0.08096354  0.54050790     0.09100
H802        H  0.21738847  0.23230708  0.47362907     0.09100
H803        H  0.21392789  0.20766618  0.42945119     0.09100
H804        H  0.24160556  0.21539464  0.47042967     0.05800
C805        C  0.18479891  0.32870341  0.36685846    -0.20000
C806        C  0.15758972  0.30486485  0.34903207    -0.06500
C807        C  0.14220133  0.31237401  0.31764309     0.14300
C808        C  0.15399178  0.34331774  0.30606427    -0.20000
C809        C  0.18099305  0.36720750  0.32421079    -0.06500
C810        C  0.19689635  0.35961508  0.35472781     0.14300
C811        C  0.22676852  0.38353953  0.37461797    -0.23400
H812        H  0.19696899  0.32312279  0.39033588     0.15600
H813        H  0.14188707  0.34883055  0.28240372     0.15600
C814        C  0.11326541  0.28827951  0.29600581    -0.23300
H815        H  0.23602937  0.37310784  0.39701962     0.05900
H816        H  0.22301336  0.40043724  0.39260735     0.09100
H817        H  0.24454050  0.39552464  0.34982207     0.09100
H818        H  0.09480718  0.27553048  0.31968314     0.09100
H819        H  0.11818531  0.27207155  0.27824295     0.09100
H820        H  0.10431443  0.29864033  0.27300598     0.05800
C821        C  0.19729645  0.68264414  0.65526378    -0.20000
C822        C  0.17526795  0.68571357  0.67921421    -0.06500
C823        C  0.14353307  0.66515227  0.67136243     0.14300
C824        C  0.13495276  0.64084453  0.64242758    -0.20000
C825        C  0.15710130  0.63655732  0.62068014    -0.06500
C826        C  0.18876773  0.65852111  0.62621625     0.14300
C827        C  0.21398438  0.65604579  0.60349663    -0.23400
H828        H  0.22161749  0.69872799  0.66032030     0.15600
H829        H  0.11067211  0.62442263  0.63779333     0.15600
C830        C  0.11849181  0.66770485  0.69437471    -0.23300
H831        H  0.23732147  0.67501501  0.61225840     0.05900
H832        H  0.21143214  0.65739483  0.56891723     0.09100
H833        H  0.21286662  0.63393047  0.61169153     0.09100
H834        H  0.12047701  0.69039781  0.68757901     0.09100
H835        H  0.12045176  0.66517893  0.72883424     0.09100
H836        H  0.09508600  0.64952022  0.68442831     0.05800
C837        C  0.18662714  0.50948225  0.46295378    -0.20000
C838        C  0.17252801  0.52719051  0.45431775    -0.06500
C839        C  0.17000779  0.53444657  0.41188851     0.14300
C840        C  0.18076072  0.52305403  0.37942229    -0.20000
C841        C  0.19455679  0.50513818  0.38809497    -0.06500
C842        C  0.19788368  0.49858602  0.43046729     0.14300
C843        C  0.21187507  0.47889401  0.44154911    -0.23400
H844        H  0.18851198  0.50379080  0.49537424     0.15600
H845        H  0.17804640  0.52785637  0.34687123     0.15600
C846        C  0.15484533  0.55298584  0.40029540    -0.23300
H847        H  0.21158501  0.47511910  0.47610305     0.05900
H848        H  0.23627740  0.49037108  0.43087162     0.09100
H849        H  0.19866087  0.45598299  0.42612137     0.09100
H850        H  0.16819263  0.57656407  0.41370825     0.09100
H851        H  0.13082097  0.54147206  0.41257088     0.09100
H852        H  0.15384322  0.55536293  0.36559215     0.05800
C853        C  0.80709310  0.33105860  0.34406971    -0.20000
C854        C  0.82827684  0.32412843  0.32498126    -0.06500
C855        C  0.86012684  0.34285498  0.33383864     0.14300
C856        C  0.86990613  0.36858682  0.36039433    -0.20000
C857        C  0.84871585  0.37599354  0.37839207    -0.06500
C858        C  0.81682918  0.35677311  0.37038555     0.14300
C859        C  0.79302833  0.36425693  0.38703425    -0.23400
H860        H  0.78269574  0.31676015  0.33722000     0.15600
H861        H  0.89435020  0.38352787  0.36626396     0.15600
C862        C  0.88406192  0.33697360  0.31374203    -0.23300
H863        H  0.76942715  0.34753397  0.37579943     0.05900
H864        H  0.79853658  0.38756751  0.37618920     0.09100
H865        H  0.79263529  0.36346561  0.42200562     0.09100
H866        H  0.88249282  0.33759475  0.27885834     0.09100
H867        H  0.88036664  0.31412048  0.32377966     0.09100
H868        H  0.90786158  0.35462099  0.32305012     0.05800
C869        C  0.97841998  0.48261910  0.51571323    -0.20000
C870        C  0.97517254  0.49559494  0.47805357    -0.06500
C871        C  0.00224279  0.51764358  0.45675006     0.14300
C872        C  0.03134678  0.52590559  0.47371819    -0.20000
C873        C  0.03454110  0.51313677  0.51163313    -0.06500
C874        C  0.00748084  0.49099733  0.53279058     0.14300
C875        C  0.00862536  0.47625040  0.57370628    -0.23400
H876        H  0.95793603  0.46582165  0.53239276     0.15600
H877        H  0.05186936  0.54275935  0.45715997     0.15600
C878        C  0.00104156  0.53277657  0.41623571    -0.23300
H879        H  0.98517584  0.45998299  0.58597395     0.05900
H880        H  0.02072622  0.49427738  0.59808752     0.09100
H881        H  0.02069453  0.46292755  0.56886594     0.09100
H882        H  0.98915798  0.54621763  0.42166580     0.09100
H883        H  0.98870644  0.51496654  0.39167685     0.09100
H884        H  0.02448255  0.54901610  0.40390515     0.05800
C885        C  0.46877474  0.30489551  0.29698165    -0.20000
C886        C  0.49153980  0.30137147  0.27560646    -0.06500
C887        C  0.52277955  0.32513584  0.27896980     0.14300
C888        C  0.53049635  0.34982959  0.30680629    -0.20000
C889        C  0.50789585  0.35220649  0.33030164    -0.06500
C890        C  0.47646663  0.33014178  0.32375390     0.14300
C891        C  0.45096896  0.33216875  0.34626617    -0.23400
H892        H  0.44472942  0.28726239  0.29370392     0.15600
H893        H  0.55456487  0.36717749  0.31096456     0.15600
C894        C  0.54834969  0.32441416  0.25460562    -0.23300
H895        H  0.42783865  0.31258329  0.33805417     0.05900
H896        H  0.45138705  0.35379514  0.33713898     0.09100
H897        H  0.45395162  0.33180954  0.38090754     0.09100
H898        H  0.54385215  0.32392139  0.22024729     0.09100
H899        H  0.54995386  0.30383066  0.26366362     0.09100
H900        H  0.57115619  0.34512443  0.26090174     0.05800
C901        C  0.47486094  0.15619769  0.09162442    -0.20000
C902        C  0.49676442  0.18443574  0.10934807    -0.06500
C903        C  0.52608427  0.20143889  0.08997901     0.14300
C904        C  0.53302211  0.18902812  0.05449557    -0.20000
C905        C  0.51110833  0.16053235  0.03695426    -0.06500
C906        C  0.48127361  0.14428008  0.05544071     0.14300
C907        C  0.45585293  0.11420307  0.03793960    -0.23400
H908        H  0.45219243  0.14343041  0.10597082     0.15600
H909        H  0.55570379  0.20180358  0.04023857     0.15600
C910        C  0.55038232  0.23223183  0.10692268    -0.23300
H911        H  0.43441784  0.10476475  0.05712517     0.05900
H912        H  0.46328425  0.09666840  0.03765788     0.09100
H913        H  0.44986906  0.11781601  0.00554142     0.09100
H914        H  0.55548954  0.22977767  0.14029843     0.09100
H915        H  0.54216427  0.24910557  0.10475683     0.09100
H916        H  0.57226906  0.24172047  0.08874878     0.05800
C917        C  0.15888166  0.02556890  0.04224780    -0.20000
C918        C  0.19038708  0.04781792  0.04270137    -0.06500
C919        C  0.21130003  0.04238004  0.01898270     0.14300
C920        C  0.19982433  0.01597167  0.99339757    -0.20000
C921        C  0.16802792  0.99524123  0.99005718    -0.06500
C922        C  0.14736323  0.99950676  0.01607915     0.14300
C923        C  0.11314984  0.97672125  0.01675027    -0.23400
H924        H  0.14286763  0.02932848  0.06095351     0.15600
H925        H  0.21571977  0.01237341  0.97415264     0.15600
C926        C  0.24569471  0.06417244  0.02024491    -0.23300
H927        H  0.10106703  0.98248793  0.04146984     0.05900
H928        H  0.10915723  0.95321836  0.02346955     0.09100
H929        H  0.10256275  0.97682093  0.98608680     0.09100
H930        H  0.25389178  0.06783733  0.05340260     0.09100
H931        H  0.25146309  0.08656560  0.00564512     0.09100
H932        H  0.25849885  0.05492513  0.00248789     0.05800
C933        C  0.13646491  0.15147287  0.26034620    -0.20000
C934        C  0.15515434  0.18094890  0.27763375    -0.06500
C935        C  0.18427453  0.20077345  0.25893921     0.14300
C936        C  0.19448200  0.18995234  0.22531990    -0.20000
C937        C  0.17646871  0.15999860  0.20912711    -0.06500
C938        C  0.14661948  0.14076375  0.22623538     0.14300
C939        C  0.12495801  0.10933217  0.20826543    -0.23400
H940        H  0.11392203  0.13650341  0.27402764     0.15600
H941        H  0.21702757  0.20511897  0.21179006     0.15600
C942        C  0.20456501  0.23373442  0.27313885    -0.23300
H943        H  0.10209037  0.09832312  0.22417174     0.05900
H944        H  0.13473876  0.09389283  0.21251834     0.09100
H945        H  0.12114538  0.11141012  0.17421401     0.09100
H946        H  0.21323354  0.23435234  0.30550644     0.09100
H947        H  0.19133147  0.24614967  0.27224802     0.09100
H948        H  0.22508387  0.24642945  0.25243406     0.05800
C949        C  0.34547778  0.16263570  0.20193163    -0.20000
C950        C  0.37081853  0.18109755  0.17576619    -0.06500
C951        C  0.36511645  0.19011452  0.13581713     0.14300
C952        C  0.33462192  0.18067186  0.12367452    -0.20000
C953        C  0.30929683  0.16247942  0.14997162    -0.06500
C954        C  0.31496646  0.15334887  0.18985734     0.14300
C955        C  0.28932721  0.13438476  0.22057929    -0.23400
H956        H  0.34955556  0.15569514  0.23250188     0.15600
H957        H  0.33056909  0.18760739  0.09308236     0.15600
C958        C  0.39073134  0.20945513  0.10522130    -0.23300
H959        H  0.29826375  0.13048657  0.25062853     0.05900
H960        H  0.27345339  0.11138955  0.20684667     0.09100
H961        H  0.27645075  0.14653460  0.22831061     0.09100
H962        H  0.40401256  0.19771541  0.09752801     0.09100
H963        H  0.40622928  0.23253673  0.11901144     0.09100
H964        H  0.38173690  0.21320060  0.07512323     0.05800
C965        C  0.80929763  0.48626937  0.85373744    -0.20000
C966        C  0.83118896  0.51036646  0.82838055    -0.06500
C967        C  0.86270020  0.51918187  0.83227061     0.14300
C968        C  0.87113697  0.50231222  0.85905328    -0.20000
C969        C  0.84906356  0.47697471  0.88240684    -0.06500
C970        C  0.81777349  0.46954274  0.88087558     0.14300
C971        C  0.79291586  0.44314279  0.90582305    -0.23400
H972        H  0.78517271  0.47978929  0.85121156     0.15600
H973        H  0.89518361  0.50838652  0.86070823     0.15600
C974        C  0.88742973  0.54514412  0.80664405    -0.23300
H975        H  0.76974882  0.44035594  0.89993954     0.05900
H976        H  0.79772582  0.44742937  0.94007198     0.09100
H977        H  0.79198680  0.42123004  0.89686557     0.09100
H978        H  0.88826280  0.56713139  0.81479116     0.09100
H979        H  0.88254734  0.54029176  0.77248835     0.09100
H980        H  0.91065475  0.54818144  0.81286858     0.05800
C981        C  0.85285582  0.52524472  0.60537938    -0.20000
C982        C  0.82238078  0.50648630  0.61963237    -0.06500
C983        C  0.80343947  0.47800449  0.59883214     0.14300
C984        C  0.81534859  0.46968715  0.56402288    -0.20000
C985        C  0.84553964  0.48908476  0.54919935    -0.06500
C986        C  0.86468273  0.51703260  0.57079624     0.14300
C987        C  0.89800222  0.53814084  0.55862424    -0.23400
H988        H  0.86773396  0.54687674  0.62123225     0.15600
H989        H  0.80078628  0.44812824  0.54779440     0.15600
C990        C  0.77089302  0.45606117  0.61305716    -0.23300
H991        H  0.91000826  0.55759231  0.58113738     0.05900
H992        H  0.89941067  0.54835112  0.52709011     0.09100
H993        H  0.91056836  0.52505015  0.55839504     0.09100
H994        H  0.75651298  0.46714052  0.60986962     0.09100
H995        H  0.77096717  0.44932877  0.64639883     0.09100
H996        H  0.75995122  0.43463627  0.59383649     0.05800
C997        C  0.85926280  0.84372115  0.47926219    -0.20000
C998        C  0.83773988  0.82145250  0.50690999    -0.06500
C999        C  0.80663608  0.81436621  0.50538937     0.14300
C1000       C  0.79833010  0.83110873  0.47802500    -0.20000
C1001       C  0.82030378  0.85486028  0.45222182    -0.06500
C1002       C  0.85107929  0.86056802  0.45201680     0.14300
C1003       C  0.87599259  0.88556109  0.42533684    -0.23400
H1004       H  0.88307862  0.84893442  0.48035752     0.15600
H1005       H  0.77468588  0.82641736  0.47805349     0.15600
C1006       C  0.78255663  0.79070594  0.53440378    -0.23300
H1007       H  0.89875240  0.88714171  0.43014685     0.05900
H1008       H  0.87856846  0.90828403  0.43374807     0.09100
H1009       H  0.87006183  0.88062333  0.39143958     0.09100
H1010       H  0.78952274  0.79720319  0.56776234     0.09100
H1011       H  0.77990933  0.76768831  0.52800330     0.09100
H1012       H  0.75965610  0.78886499  0.52992269     0.05800
C1013       C  0.81403563  0.82123934  0.77627090    -0.20000
C1014       C  0.83000026  0.85307089  0.78506502    -0.06500
C1015       C  0.85537698  0.87278135  0.75900998     0.14300
C1016       C  0.86438740  0.86002577  0.72598198    -0.20000
C1017       C  0.84808201  0.82827455  0.71704283    -0.06500
C1018       C  0.82230292  0.80867760  0.74248580     0.14300
C1019       C  0.80350135  0.77433610  0.73495842    -0.23400
H1020       H  0.79447115  0.80588450  0.79567681     0.15600
H1021       H  0.88389028  0.87510427  0.70626924     0.15600
C1022       C  0.87311185  0.90720371  0.76543709    -0.23300
H1023       H  0.78542960  0.76251040  0.75945812     0.05900
H1024       H  0.81874295  0.76409049  0.73551329     0.09100
H1025       H  0.79153409  0.76968511  0.70411065     0.09100
H1026       H  0.88325829  0.91264963  0.79755677     0.09100
H1027       H  0.85750539  0.91681708  0.76115473     0.09100
H1028       H  0.89230094  0.91885214  0.74239187     0.05800
C1029       C  0.82929533  0.67353948  0.62788991    -0.20000
C1030       C  0.84362479  0.69822921  0.65636234    -0.06500
C1031       C  0.84761169  0.69197925  0.69878659     0.14300
C1032       C  0.83774065  0.66144439  0.71110773    -0.20000
C1033       C  0.82376320  0.63677485  0.68249266    -0.06500
C1034       C  0.81943662  0.64302284  0.64017646     0.14300
C1035       C  0.80538184  0.61802110  0.60719418    -0.23400
H1036       H  0.82623634  0.67820421  0.59541604     0.15600
H1037       H  0.84081049  0.65678561  0.74357985     0.15600
C1038       C  0.86147707  0.71704903  0.73170187    -0.23300
H1039       H  0.80537828  0.62747467  0.57550305     0.05900
H1040       H  0.78101561  0.60138666  0.61541416     0.09100
H1041       H  0.81882365  0.60587143  0.60488981     0.09100
H1042       H  0.84821396  0.72941355  0.73332470     0.09100
H1043       H  0.88597814  0.73351105  0.72393827     0.09100
H1044       H  0.86100831  0.70760141  0.76355951     0.05800
C1045       C  0.99143490  0.18698686  0.99344404    -0.20000
C1046       C  0.01465431  0.17905500  0.99423274    -0.06500
C1047       C  0.01251695  0.15688978  0.02393067     0.14300
C1048       C  0.98656058  0.14233986  0.05045030    -0.20000
C1049       C  0.96218561  0.14862664  0.04758439    -0.06500
C1050       C  0.96508009  0.17188736  0.01916319     0.14300
C1051       C  0.94058814  0.18095668  0.01509024    -0.23400
H1052       H  0.99317650  0.20412446  0.97096816     0.15600
H1053       H  0.98474648  0.12488949  0.07238663     0.15600
C1054       C  0.03743607  0.14840648  0.02816482    -0.23300
H1055       H  0.94780677  0.20081112  0.99335120     0.05900
H1056       H  0.93594691  0.18779451  0.04637610     0.09100
H1057       H  0.91908086  0.16147309  0.00205853     0.09100
H1058       H  0.06008242  0.16950860  0.03362316     0.09100
H1059       H  0.03855796  0.13647948  0.99927635     0.09100
H1060       H  0.03295479  0.13249964  0.05508034     0.05800
C1061       C  0.17259567  0.21125966  0.97571079    -0.20000
C1062       C  0.14730979  0.18920247  0.95225867    -0.06500
C1063       C  0.13961838  0.15785967  0.95437804     0.14300
C1064       C  0.15636791  0.14941286  0.98142366    -0.20000
C1065       C  0.18087177  0.17130948  0.00607205    -0.06500
C1066       C  0.18955729  0.20278562  0.00238974     0.14300
C1067       C  0.21555281  0.22738168  0.02803520    -0.23400
H1068       H  0.17865197  0.23527849  0.97403572     0.15600
H1069       H  0.14979909  0.12528774  0.98409430     0.15600
C1070       C  0.11299991  0.13284646  0.92994423    -0.23300
H1071       H  0.21844658  0.25057668  0.02219606     0.05900
H1072       H  0.23758630  0.22837966  0.01954673     0.09100
H1073       H  0.21081129  0.22222176  0.06217377     0.09100
H1074       H  0.11720738  0.13722277  0.89559129     0.09100
H1075       H  0.09116017  0.13214199  0.93887456     0.09100
H1076       H  0.11003587  0.10968997  0.93636613     0.05800
C1077       C  0.35160455  0.53436564  0.62132453    -0.20000
C1078       C  0.37497421  0.52658488  0.62401347    -0.06500
C1079       C  0.37018111  0.50166060  0.65052490     0.14300
C1080       C  0.34321134  0.48668863  0.67513441    -0.20000
C1081       C  0.32150866  0.49661525  0.67534840    -0.06500
C1082       C  0.32519452  0.52005362  0.64700046     0.14300
C1083       C  0.30141731  0.53013405  0.64358950    -0.23400
H1084       H  0.35469455  0.55292125  0.60059141     0.15600
H1085       H  0.34005396  0.46841721  0.69650878     0.15600
C1086       C  0.39345027  0.49095940  0.65416627    -0.23300
H1087       H  0.30709662  0.54725722  0.61792188     0.05900
H1088       H  0.30026738  0.54114442  0.67338093     0.09100
H1089       H  0.27843075  0.50987882  0.63666976     0.09100
H1090       H  0.41499584  0.50923876  0.66887109     0.09100
H1091       H  0.39849331  0.48507555  0.62247600     0.09100
H1092       H  0.38482863  0.47009602  0.67431539     0.05800
C1093       C  0.19166768  0.51622681  0.71991706    -0.20000
C1094       C  0.18966140  0.48778370  0.71056639    -0.06500
C1095       C  0.16998164  0.46964225  0.67712778     0.14300
C1096       C  0.15411847  0.48103052  0.65339793    -0.20000
C1097       C  0.15823268  0.51044147  0.66075966    -0.06500
C1098       C  0.17661707  0.52798220  0.69510825     0.14300
C1099       C  0.18041349  0.55906554  0.70585116    -0.23400
H1100       H  0.20622643  0.53008508  0.74565897     0.15600
H1101       H  0.13998319  0.46770423  0.62698818     0.15600
C1102       C  0.16595593  0.43866333  0.66503062    -0.23300
H1103       H  0.19410753  0.56873032  0.73510765     0.05900
H1104       H  0.15738788  0.55683789  0.71083350     0.09100
H1105       H  0.19266876  0.57575814  0.68006286     0.09100
H1106       H  0.15784091  0.42295034  0.69267450     0.09100
H1107       H  0.18811542  0.44147120  0.65312401     0.09100
H1108       H  0.14866427  0.42747285  0.63950019     0.05800
C1109       C  0.17980539  0.34567591  0.79408000    -0.20000
C1110       C  0.18611821  0.37095556  0.81984524    -0.06500
C1111       C  0.17166066  0.36539117  0.85994376     0.14300
C1112       C  0.15143925  0.33485762  0.87288694    -0.20000
C1113       C  0.14533681  0.30945580  0.84728611    -0.06500
C1114       C  0.15977151  0.31516236  0.80702533     0.14300
C1115       C  0.15446515  0.28955050  0.77702834    -0.23400
H1116       H  0.19068857  0.34981723  0.76336081     0.15600
H1117       H  0.14067975  0.33084321  0.90366632     0.15600
C1118       C  0.17809584  0.39124887  0.89011545    -0.23300
H1119       H  0.16713493  0.29854108  0.74683974     0.05900
H1120       H  0.12953094  0.27557769  0.76936606     0.09100
H1121       H  0.16277855  0.27477240  0.79131400     0.09100
H1122       H  0.16989037  0.40631838  0.87654033     0.09100
H1123       H  0.20325010  0.40496554  0.89660801     0.09100
H1124       H  0.16606962  0.38246911  0.92076157     0.05800
C1125       C  0.63128860  0.12428796  0.86074587    -0.20000
C1126       C  0.62717494  0.14668209  0.88203237    -0.06500
C1127       C  0.65120239  0.17780226  0.88117976     0.14300
C1128       C  0.67744215  0.18592833  0.85658374    -0.20000
C1129       C  0.68045184  0.16405254  0.83237754    -0.06500
C1130       C  0.65771780  0.13251197  0.83607617     0.14300
C1131       C  0.66024114  0.10762086  0.81269619    -0.23400
H1132       H  0.61314761  0.10033282  0.86209458     0.15600
H1133       H  0.69520547  0.21001356  0.85465048     0.15600
C1134       C  0.64874674  0.20307740  0.90367604    -0.23300
H1135       H  0.64022528  0.08436283  0.81919293     0.05900
H1136       H  0.68145438  0.10749441  0.82270637     0.09100
H1137       H  0.66105268  0.11172199  0.77819811     0.09100
H1138       H  0.64669012  0.19873660  0.93816975     0.09100
H1139       H  0.62834087  0.20410059  0.89199618     0.09100
H1140       H  0.66941758  0.22609554  0.89833559     0.05800
C1141       C  0.83686185  0.29619061  0.81670996    -0.20000
C1142       C  0.81192014  0.29272993  0.79203990    -0.06500
C1143       C  0.80515113  0.31708609  0.79134970     0.14300
C1144       C  0.82207407  0.34299985  0.81721608    -0.20000
C1145       C  0.84592768  0.34569083  0.84338803    -0.06500
C1146       C  0.85411756  0.32242984  0.84203517     0.14300
C1147       C  0.87991940  0.32431291  0.86872569    -0.23400
H1148       H  0.84246839  0.27787003  0.81697728     0.15600
H1149       H  0.81603016  0.36101832  0.81793786     0.15600
C1150       C  0.77927394  0.31554910  0.76515271    -0.23300
H1151       H  0.88259378  0.30371214  0.86460457     0.05900
H1152       H  0.87514307  0.32588741  0.90257665     0.09100
H1153       H  0.90207468  0.34491508  0.85959153     0.09100
H1154       H  0.75700281  0.29517200  0.77450887     0.09100
H1155       H  0.78382622  0.31404152  0.73120834     0.09100
H1156       H  0.77697981  0.33636741  0.76936435     0.05800
C1157       C  0.99203409  0.13955020  0.48589383    -0.20000
C1158       C  0.98838169  0.16101657  0.51021053    -0.06500
C1159       C  0.00927314  0.19288811  0.50435688     0.14300
C1160       C  0.03381859  0.20222266  0.47563211    -0.20000
C1161       C  0.03811323  0.18065336  0.45251428    -0.06500
C1162       C  0.01655913  0.14885477  0.45727186     0.14300
C1163       C  0.02016502  0.12440427  0.43436128    -0.23400
H1164       H  0.97602004  0.11512776  0.49021737     0.15600
H1165       H  0.05038005  0.22658189  0.47213529     0.15600
C1166       C  0.00697938  0.21716094  0.52974804    -0.23300
H1167       H  0.00184651  0.10076857  0.44321382     0.05900
H1168       H  0.04279756  0.12655047  0.44227633     0.09100
H1169       H  0.01860951  0.12690015  0.39981993     0.09100
H1170       H  0.00841571  0.21322433  0.56392963     0.09100
H1171       H  0.98480914  0.21632932  0.52287520     0.09100
H1172       H  0.02593198  0.24076721  0.52207259     0.05800
C1173       C  0.84976172  0.98646624  0.52289147    -0.20000
C1174       C  0.82704014  0.98535043  0.49569055    -0.06500
C1175       C  0.81927869  0.00890382  0.49826841     0.14300
C1176       C  0.83576024  0.03377351  0.52591841    -0.20000
C1177       C  0.85975150  0.03584422  0.55135259    -0.06500
C1178       C  0.86610969  0.01123475  0.55081278     0.14300
C1179       C  0.89099962  0.01142687  0.57782744    -0.23400
H1180       H  0.85546502  0.96822424  0.52133362     0.15600
H1181       H  0.83048471  0.05232152  0.52664144     0.15600
C1182       C  0.79491276  0.00902118  0.47045139    -0.23300
H1183       H  0.89304793  0.99055294  0.57263553     0.05900
H1184       H  0.88551660  0.01189240  0.61166831     0.09100
H1185       H  0.91368046  0.03188947  0.57016810     0.09100
H1186       H  0.77216023  0.98839346  0.47720696     0.09100
H1187       H  0.80103040  0.00900985  0.43677106     0.09100
H1188       H  0.79260949  0.02972580  0.47588097     0.05800
C1189       C  0.00838622  0.18058722  0.71788902    -0.20000
C1190       C  0.98431531  0.14963525  0.71767352    -0.06500
C1191       C  0.98234252  0.13008619  0.75147970     0.14300
C1192       C  0.00379659  0.14234070  0.78475412    -0.20000
C1193       C  0.02667624  0.17354136  0.78535485    -0.06500
C1194       C  0.02940053  0.19273300  0.75125311     0.14300
C1195       C  0.05476294  0.22604399  0.74979827    -0.23400
H1196       H  0.01064472  0.19572165  0.69203306     0.15600
H1197       H  0.00202012  0.12782616  0.81120686     0.15600
C1198       C  0.95749521  0.09666001  0.75357325    -0.23300
H1199       H  0.05411193  0.23757845  0.72021609     0.05900
H1200       H  0.07756664  0.22733553  0.75158649     0.09100
H1201       H  0.05238994  0.23896239  0.77664084     0.09100
H1202       H  0.95925910  0.08408021  0.72582245     0.09100
H1203       H  0.93441944  0.09481144  0.75433786     0.09100
H1204       H  0.95958307  0.08515895  0.78232547     0.05800
C1205       C  0.84093496  0.14238736  0.69364239    -0.20000
C1206       C  0.85665854  0.15514658  0.65557670    -0.06500
C1207       C  0.85114970  0.17682656  0.63424993     0.14300
C1208       C  0.83014746  0.18482460  0.65142684    -0.20000
C1209       C  0.81447663  0.17213723  0.68958594    -0.06500
C1210       C  0.82017104  0.15060746  0.71105253     0.14300
C1211       C  0.80484834  0.13614775  0.75241716    -0.23400
H1212       H  0.84509652  0.12592076  0.71031811     0.15600
H1213       H  0.82602600  0.20130230  0.63471338     0.15600
C1214       C  0.86687465  0.19157214  0.59320845    -0.23300
H1215       H  0.81237153  0.12012563  0.76457201     0.05900
H1216       H  0.77941882  0.12262572  0.74829425     0.09100
H1217       H  0.81094863  0.15437113  0.77657223     0.09100
H1218       H  0.86153155  0.17348767  0.56909329     0.09100
H1219       H  0.89221177  0.20553730  0.59800199     0.09100
H1220       H  0.85906331  0.20726647  0.58066017     0.05800
C1221       C  0.35120705  0.83280382  0.70068741    -0.20000
C1222       C  0.34918116  0.85094022  0.66839262    -0.06500
C1223       C  0.32250797  0.85382880  0.66582724     0.14300
C1224       C  0.29773695  0.83660464  0.69338030    -0.20000
C1225       C  0.29883787  0.81672843  0.72387139    -0.06500
C1226       C  0.32660805  0.81593751  0.72875529     0.14300
C1227       C  0.33027350  0.79656146  0.76210974    -0.23400
H1228       H  0.37191384  0.83101687  0.70310099     0.15600
H1229       H  0.27684188  0.83794403  0.69005008     0.15600
C1230       C  0.31917568  0.87360692  0.63275477    -0.23300
H1231       H  0.35354569  0.79884076  0.76112154     0.05900
H1232       H  0.31299390  0.77184565  0.75728052     0.09100
H1233       H  0.32725160  0.80408335  0.79384881     0.09100
H1234       H  0.32115509  0.86566589  0.60079097     0.09100
H1235       H  0.33737926  0.89805930  0.63711562     0.09100
H1236       H  0.29645668  0.87251210  0.63480625     0.05800
C1237       C  0.50453068  0.87562119  0.64619386    -0.20000
C1238       C  0.47770786  0.85344672  0.62535636    -0.06500
C1239       C  0.46803077  0.82178843  0.63079796     0.14300
C1240       C  0.48444674  0.81326826  0.65829835    -0.20000
C1241       C  0.51047406  0.83532253  0.68041666    -0.06500
C1242       C  0.52117373  0.86700259  0.67339411     0.14300
C1243       C  0.54910249  0.89178462  0.69592283    -0.23400
H1244       H  0.51209167  0.89987376  0.64200418     0.15600
H1245       H  0.47639436  0.78897919  0.66338443     0.15600
C1246       C  0.43955636  0.79660973  0.60962534    -0.23300
H1247       H  0.55355658  0.91523626  0.68765709     0.05900
H1248       H  0.56985943  0.89041330  0.68693315     0.09100
H1249       H  0.54556978  0.88885835  0.73056679     0.09100
H1250       H  0.44251521  0.79863555  0.57486094     0.09100
H1251       H  0.41901906  0.79829836  0.61893712     0.09100
H1252       H  0.43506970  0.77326844  0.61863099     0.05800
C1253       C  0.65226970  0.17846831  0.31092128    -0.20000
C1254       C  0.65380957  0.15988133  0.34297284    -0.06500
C1255       C  0.67968057  0.15569498  0.34486896     0.14300
C1256       C  0.70374843  0.17095810  0.31569710    -0.20000
C1257       C  0.70333884  0.19121535  0.28525001    -0.06500
C1258       C  0.67662569  0.19418559  0.28196026     0.14300
C1259       C  0.67398543  0.21480200  0.24958865    -0.23400
H1260       H  0.63231430  0.18157851  0.30952771     0.15600
H1261       H  0.72386919  0.16822041  0.31825196     0.15600
C1262       C  0.68327039  0.13716131  0.37959696    -0.23300
H1263       H  0.65146722  0.21413230  0.25172819     0.05900
H1264       H  0.67587503  0.20714640  0.21739540     0.09100
H1265       H  0.69246649  0.23906919  0.25455583     0.09100
H1266       H  0.66454679  0.11274467  0.37759404     0.09100
H1267       H  0.68236070  0.14684750  0.41075730     0.09100
H1268       H  0.70564931  0.13755296  0.37744163     0.05800
C1269       C  0.50232548  0.13817649  0.36348350    -0.20000
C1270       C  0.52937120  0.16043741  0.38371402    -0.06500
C1271       C  0.54034743  0.19206368  0.37548498     0.14300
C1272       C  0.52468085  0.20033556  0.34617340    -0.20000
C1273       C  0.49837909  0.17800086  0.32464816    -0.06500
C1274       C  0.48670821  0.14646834  0.33413206     0.14300
C1275       C  0.45887110  0.12128787  0.31192028    -0.23400
H1276       H  0.49385137  0.11394717  0.36966934     0.15600
H1277       H  0.53358371  0.22452931  0.33912178     0.15600
C1278       C  0.56939325  0.21725111  0.39551188    -0.23300
H1279       H  0.45380076  0.09797252  0.32210867     0.05900
H1280       H  0.46296784  0.12300700  0.27734328     0.09100
H1281       H  0.43824314  0.12335715  0.31913285     0.09100
H1282       H  0.58929109  0.21415658  0.38729411     0.09100
H1283       H  0.56654145  0.21665714  0.43028009     0.09100
H1284       H  0.57485609  0.24051795  0.38449677     0.05800
C1285       C  0.66261099  0.19283947  0.56899605    -0.20000
C1286       C  0.64641514  0.16164235  0.55708700    -0.06500
C1287       C  0.64991983  0.13987131  0.58138125     0.14300
C1288       C  0.67018972  0.14993663  0.61581062    -0.20000
C1289       C  0.68756298  0.18129498  0.62690033    -0.06500
C1290       C  0.68336086  0.20304605  0.60328168     0.14300
C1291       C  0.70044614  0.23695415  0.61373364    -0.23400
H1292       H  0.65965415  0.20944434  0.55062521     0.15600
H1293       H  0.67276014  0.13297365  0.63385441     0.15600
C1294       C  0.63179312  0.10574506  0.57199985    -0.23300
H1295       H  0.69365204  0.25028510  0.59266525     0.05900
H1296       H  0.72566645  0.24641040  0.60984730     0.09100
H1297       H  0.69524622  0.24048955  0.64665213     0.09100
H1298       H  0.63893856  0.10085643  0.54114215     0.09100
H1299       H  0.60670079  0.09781992  0.57155159     0.09100
H1300       H  0.63569330  0.09197561  0.59614164     0.05800
C1301       C  0.51046451  0.01090389  0.46233554    -0.20000
C1302       C  0.51866054  0.03605059  0.48949249    -0.06500
C1303       C  0.50509158  0.03014652  0.53029121     0.14300
C1304       C  0.48431771  0.99962044  0.54260940    -0.20000
C1305       C  0.47645071  0.97442432  0.51571913    -0.06500
C1306       C  0.48962578  0.98034645  0.47463776     0.14300
C1307       C  0.48199178  0.95490894  0.44314323    -0.23400
H1308       H  0.52046987  0.01515475  0.43101908     0.15600
H1309       H  0.47442800  0.99542699  0.57399169     0.15600
C1310       C  0.51265096  0.05556103  0.56177069    -0.23300
H1311       H  0.49370039  0.96403674  0.41238628     0.05900
H1312       H  0.45673500  0.94198010  0.43717297     0.09100
H1313       H  0.48973538  0.93905534  0.45518625     0.09100
H1314       H  0.50520504  0.07157536  0.54943566     0.09100
H1315       H  0.53785241  0.06829047  0.56816400     0.09100
H1316       H  0.50062783  0.04646096  0.59235064     0.05800
C1317       C  0.99333287  0.80554501  0.49627478    -0.20000
C1318       C  0.01545203  0.83705270  0.49501312    -0.06500
C1319       C  0.01242422  0.85737101  0.52323743     0.14300
C1320       C  0.98640547  0.84602416  0.54970109    -0.20000
C1321       C  0.96281302  0.81498152  0.54841109    -0.06500
C1322       C  0.96695066  0.79423368  0.52217067     0.14300
C1323       C  0.94374011  0.76020133  0.52060756    -0.23400
H1324       H  0.99586829  0.78987465  0.47520882     0.15600
H1325       H  0.98385650  0.86197002  0.57016665     0.15600
C1326       C  0.03652959  0.89109732  0.52592049    -0.23300
H1327       H  0.95187437  0.74743045  0.50058106     0.05900
H1328       H  0.92169451  0.75639535  0.50691734     0.09100
H1329       H  0.93974076  0.75027157  0.55285166     0.09100
H1330       H  0.03707458  0.90310688  0.49627426     0.09100
H1331       H  0.05956093  0.89356937  0.53178160     0.09100
H1332       H  0.03162638  0.90287712  0.55200144     0.05800
C1333       C  0.18848655  0.99346702  0.49945838    -0.20000
C1334       C  0.17901679  0.01549776  0.49863666    -0.06500
C1335       C  0.15584680  0.01186225  0.46981593     0.14300
C1336       C  0.14079182  0.98481617  0.44550769    -0.20000
C1337       C  0.14815397  0.96119981  0.44933950    -0.06500
C1338       C  0.17341522  0.96635582  0.47534867     0.14300
C1339       C  0.18470635  0.94354059  0.47848544    -0.23400
H1340       H  0.20672584  0.99666679  0.52091309     0.15600
H1341       H  0.12222859  0.98160489  0.42471532     0.15600
C1342       C  0.14709641  0.03647719  0.46414332    -0.23300
H1343       H  0.20601161  0.95262702  0.49780080     0.05900
H1344       H  0.19016972  0.93847750  0.44652881     0.09100
H1345       H  0.16696792  0.92197055  0.49379398     0.09100
H1346       H  0.16800290  0.05883141  0.45652477     0.09100
H1347       H  0.13617264  0.03895680  0.49321986     0.09100
H1348       H  0.13032208  0.03078474  0.43801610     0.05800
C1349       C  0.34390398  0.86228359  0.17629086    -0.20000
C1350       C  0.32220110  0.83063580  0.17584176    -0.06500
C1351       C  0.32508841  0.81171261  0.14494364     0.14300
C1352       C  0.35112228  0.82428557  0.11849772    -0.20000
C1353       C  0.37475727  0.85513356  0.12240293    -0.06500
C1354       C  0.37022468  0.87481268  0.15023560     0.14300
C1355       C  0.39302796  0.90888769  0.15349612    -0.23400
H1356       H  0.34126038  0.87702917  0.19897984     0.15600
H1357       H  0.35382279  0.80929360  0.09632704     0.15600
C1358       C  0.30110177  0.77814007  0.13970706    -0.23300
H1359       H  0.38433736  0.92083852  0.17418838     0.05900
H1360       H  0.39725933  0.91966574  0.12177571     0.09100
H1361       H  0.41503539  0.91271157  0.16733228     0.09100
H1362       H  0.27791172  0.77571053  0.13579293     0.09100
H1363       H  0.30116641  0.76473817  0.16748594     0.09100
H1364       H  0.30572246  0.76784671  0.11152616     0.05800
C1365       C  0.16886378  0.69471414  0.20110915    -0.20000
C1366       C  0.19871566  0.70304873  0.21508979    -0.06500
C1367       C  0.21188263  0.68499324  0.20248195     0.14300
C1368       C  0.19507386  0.65949599  0.17604198    -0.20000
C1369       C  0.16555050  0.65154514  0.16098395    -0.06500
C1370       C  0.15207108  0.66923272  0.17432931     0.14300
C1371       C  0.12065155  0.66233477  0.15940086    -0.23400
H1372       H  0.15882458  0.70864595  0.21056431     0.15600
H1373       H  0.20559121  0.64609852  0.16609746     0.15600
C1374       C  0.24431213  0.69333354  0.21460102    -0.23300
H1375       H  0.11416313  0.67896648  0.17235374     0.05900
H1376       H  0.10291517  0.63890816  0.16987769     0.09100
H1377       H  0.12051029  0.66380732  0.12447175     0.09100
H1378       H  0.24595167  0.69177708  0.24930885     0.09100
H1379       H  0.26082571  0.71710280  0.20381143     0.09100
H1380       H  0.25134496  0.67756881  0.20003907     0.05800
C1381       C  0.34380491  0.82164886  0.38587588    -0.20000
C1382       C  0.31209438  0.81024338  0.39136321    -0.06500
C1383       C  0.30043976  0.80916555  0.43234491     0.14300
C1384       C  0.32104865  0.82059641  0.46660793    -0.20000
C1385       C  0.35299447  0.83263304  0.46103774    -0.06500
C1386       C  0.36436374  0.83252383  0.42009669     0.14300
C1387       C  0.39827857  0.84518725  0.41164745    -0.23400
H1388       H  0.35261910  0.82252084  0.35433024     0.15600
H1389       H  0.31221855  0.82063493  0.49784115     0.15600
C1390       C  0.26658015  0.79747490  0.43972283    -0.23300
H1391       H  0.40304790  0.84433872  0.37759440     0.05900
H1392       H  0.40648825  0.83130867  0.42880057     0.09100
H1393       H  0.41159395  0.86965090  0.42191566     0.09100
H1394       H  0.25291946  0.77288418  0.43021342     0.09100
H1395       H  0.25904948  0.81128861  0.42097382     0.09100
H1396       H  0.26154854  0.79913545  0.47345549     0.05800
C1397       C  0.17035033  0.80497224  0.35441735    -0.20000
C1398       C  0.18829258  0.81942907  0.31836353    -0.06500
C1399       C  0.18379430  0.84186482  0.29733588     0.14300
C1400       C  0.16242874  0.84970247  0.31358172    -0.20000
C1401       C  0.14499306  0.83581144  0.35019744    -0.06500
C1402       C  0.14885008  0.81272808  0.37056317     0.14300
C1403       C  0.13067171  0.79605937  0.40932386    -0.23400
H1404       H  0.17330784  0.78753137  0.37052322     0.15600
H1405       H  0.15950489  0.86713275  0.29739309     0.15600
C1406       C  0.20106245  0.85770723  0.25760080    -0.23300
H1407       H  0.13650454  0.77854253  0.42050471     0.05900
H1408       H  0.10558914  0.78384725  0.40215728     0.09100
H1409       H  0.13584916  0.81275338  0.43540384     0.09100
H1410       H  0.19637966  0.84028732  0.23270456     0.09100
H1411       H  0.22621063  0.87130173  0.26408160     0.09100
H1412       H  0.19392269  0.87393548  0.24509084     0.05800
C1413       C  0.66266583  0.52710856  0.32807321    -0.20000
C1414       C  0.68462296  0.51743577  0.32744851    -0.06500
C1415       C  0.68109245  0.49394400  0.35573802     0.14300
C1416       C  0.65415039  0.47858280  0.38028383    -0.20000
C1417       C  0.63057049  0.48597754  0.37743588    -0.06500
C1418       C  0.63569115  0.51173432  0.35267686     0.14300
C1419       C  0.61306342  0.52335986  0.35208160    -0.23400
H1420       H  0.66578961  0.54575853  0.30748422     0.15600
H1421       H  0.65085654  0.45959679  0.40029009     0.15600
C1422       C  0.70562998  0.48499397  0.36059349    -0.23300
H1423       H  0.62214746  0.54520163  0.33398095     0.05900
H1424       H  0.60847725  0.52793046  0.38482181     0.09100
H1425       H  0.59116049  0.50622214  0.33690779     0.09100
H1426       H  0.72817527  0.50580147  0.36770089     0.09100
H1427       H  0.70756718  0.47383107  0.33143459     0.09100
H1428       H  0.70018083  0.46831079  0.38679298     0.05800
C1429       C  0.80912025  0.49431002  0.28433170    -0.20000
C1430       C  0.81505243  0.52470353  0.28957145    -0.06500
C1431       C  0.83802063  0.54416501  0.31897822     0.14300
C1432       C  0.85322616  0.53226347  0.34318539    -0.20000
C1433       C  0.84548784  0.50128897  0.34004080    -0.06500
C1434       C  0.82366047  0.48222336  0.30949960     0.14300
C1435       C  0.81563416  0.44915521  0.30305718    -0.23400
H1436       H  0.79192387  0.47935840  0.26164645     0.15600
H1437       H  0.87010733  0.54683595  0.36648597     0.15600
C1438       C  0.84657037  0.57733737  0.32579056    -0.23300
H1439       H  0.79974521  0.43838476  0.27595280     0.05900
H1440       H  0.80390393  0.43524199  0.33143403     0.09100
H1441       H  0.83695478  0.44812677  0.29666395     0.09100
H1442       H  0.82671955  0.57850576  0.33943814     0.09100
H1443       H  0.85362093  0.59003439  0.29540187     0.09100
H1444       H  0.86614713  0.58927640  0.34813814     0.05800
C1445       C  0.99685231  0.85564315  0.98201587    -0.20000
C1446       C  0.99494022  0.83217197  0.00831388    -0.06500
C1447       C  0.01824565  0.82404499  0.00562817     0.14300
C1448       C  0.04356020  0.84075242  0.97849452    -0.20000
C1449       C  0.04614657  0.86515577  0.95340172    -0.06500
C1450       C  0.02186312  0.87205718  0.95445375     0.14300
C1451       C  0.02243120  0.89740091  0.92806502    -0.23400
H1452       H  0.97882324  0.86166916  0.98369161     0.15600
H1453       H  0.06185530  0.83509578  0.97759994     0.15600
C1454       C  0.01741121  0.79881453  0.03253188    -0.23300
H1455       H  0.00171485  0.89970982  0.93354304     0.05900
H1456       H  0.02280979  0.89224221  0.89408361     0.09100
H1457       H  0.04304856  0.91985476  0.93606921     0.09100
H1458       H  0.99665484  0.77643701  0.02469783     0.09100
H1459       H  0.01688231  0.80415472  0.06641886     0.09100
H1460       H  0.03798746  0.79623706  0.02724229     0.05800
C1461       C  0.84413061  0.85963483  0.02466613    -0.20000
C1462       C  0.82859966  0.84207570  0.98911414    -0.06500
C1463       C  0.82874747  0.81442019  0.98092218     0.14300
C1464       C  0.84531248  0.80558147  0.00773673    -0.20000
C1465       C  0.86200404  0.82370725  0.04261862    -0.06500
C1466       C  0.86051426  0.85072603  0.05183909     0.14300
C1467       C  0.87642793  0.87076560  0.08953560    -0.23400
H1468       H  0.84389406  0.88085577  0.03074264     0.15600
H1469       H  0.84595699  0.78475157  0.00044783     0.15600
C1470       C  0.81304285  0.79508828  0.94256159    -0.23300
H1471       H  0.87209967  0.89044462  0.09200554     0.05900
H1472       H  0.90176951  0.88052236  0.08695460     0.09100
H1473       H  0.86765482  0.85697323  0.11890161     0.09100
H1474       H  0.82263386  0.80915389  0.91354975     0.09100
H1475       H  0.78783948  0.78638816  0.94424749     0.09100
H1476       H  0.81642924  0.77481619  0.94014338     0.05800
C1477       C  0.01545608  0.85489540  0.20930714    -0.20000
C1478       C  0.98340340  0.83770231  0.21589212    -0.06500
C1479       C  0.97196352  0.82995980  0.25756685     0.14300
C1480       C  0.99289937  0.83846962  0.29125824    -0.20000
C1481       C  0.02497540  0.85509756  0.28459913    -0.06500
C1482       C  0.03638927  0.86398895  0.24306915     0.14300
C1483       C  0.07052459  0.88172781  0.23378225    -0.23400
H1484       H  0.02419943  0.86079974  0.17733122     0.15600
H1485       H  0.98414113  0.83179892  0.32311029     0.15600
C1486       C  0.93783461  0.81151229  0.26664615    -0.23300
H1487       H  0.07523407  0.88554290  0.19941185     0.05900
H1488       H  0.08165496  0.86874576  0.24559958     0.09100
H1489       H  0.08114247  0.90470791  0.24914971     0.09100
H1490       H  0.92750380  0.78908408  0.24977589     0.09100
H1491       H  0.92646199  0.82459343  0.25626572     0.09100
H1492       H  0.93309115  0.80664401  0.30085852     0.05800
C1493       C  0.86416909  0.67863955  0.13701247    -0.20000
C1494       C  0.86025508  0.70339455  0.14968764    -0.06500
C1495       C  0.83503174  0.69725264  0.17655320     0.14300
C1496       C  0.81491440  0.66692663  0.18999157    -0.20000
C1497       C  0.81894420  0.64218906  0.17777223    -0.06500
C1498       C  0.84409895  0.64825336  0.15077266     0.14300
C1499       C  0.85058816  0.62321886  0.13676282    -0.23400
H1500       H  0.88336321  0.68313439  0.11656174     0.15600
H1501       H  0.79570577  0.66254226  0.21033934     0.15600
C1502       C  0.82848601  0.72219175  0.19098697    -0.23300
H1503       H  0.87173674  0.63246185  0.11699794     0.05900
H1504       H  0.83107850  0.60585890  0.11755564     0.09100
H1505       H  0.85412823  0.61199503  0.16472526     0.09100
H1506       H  0.82553110  0.73399407  0.16323372     0.09100
H1507       H  0.84764504  0.73907689  0.21112302     0.09100
H1508       H  0.80700663  0.71276549  0.21007058     0.05800
C1509       C  0.68540180  0.48529990  0.78488022    -0.20000
C1510       C  0.70802011  0.51665220  0.78652046    -0.06500
C1511       C  0.70314125  0.53679467  0.81278906     0.14300
C1512       C  0.67674363  0.52467307  0.83845846    -0.20000
C1513       C  0.65565773  0.49293304  0.83956631    -0.06500
C1514       C  0.65946274  0.47308458  0.81144833     0.14300
C1515       C  0.63630134  0.43905944  0.80914425    -0.23400
H1516       H  0.68885408  0.46992354  0.76440780     0.15600
H1517       H  0.67349365  0.53985010  0.85961219     0.15600
C1518       C  0.72559540  0.57102685  0.81436076    -0.23300
H1519       H  0.64191822  0.42755434  0.78343967     0.05900
H1520       H  0.61293310  0.43564517  0.80295340     0.09100
H1521       H  0.63608461  0.42753201  0.83910490     0.09100
H1522       H  0.72970595  0.58083748  0.78203716     0.09100
H1523       H  0.74773454  0.57557042  0.82859785     0.09100
H1524       H  0.71667572  0.58332942  0.83390876     0.05800
C1525       C  0.48512203  0.34383460  0.82183731    -0.20000
C1526       C  0.49084398  0.31921346  0.82473311    -0.06500
C1527       C  0.50974532  0.31901497  0.85777531     0.14300
C1528       C  0.52508361  0.34501871  0.88407910    -0.20000
C1529       C  0.52196053  0.37120960  0.87830942    -0.06500
C1530       C  0.50034995  0.36982705  0.84801089     0.14300
C1531       C  0.49319289  0.39555319  0.84232270    -0.23400
H1532       H  0.46992646  0.34354135  0.79724481     0.15600
H1533       H  0.54060776  0.34531717  0.90813662     0.15600
C1534       C  0.51343253  0.29133039  0.86592605    -0.23300
H1535       H  0.47391946  0.38914244  0.81980267     0.05900
H1536       H  0.51359176  0.41637188  0.82943360     0.09100
H1537       H  0.48622478  0.40097311  0.87299306     0.09100
H1538       H  0.52544820  0.28753416  0.83915915     0.09100
H1539       H  0.49036005  0.27054543  0.87041584     0.09100
H1540       H  0.52724106  0.29435883  0.89478517     0.05800
C1541       C  0.66679693  0.47359021  0.05849200    -0.20000
C1542       C  0.64726644  0.48561674  0.05045538    -0.06500
C1543       C  0.64772814  0.50799525  0.07819633     0.14300
C1544       C  0.66862006  0.51872190  0.11197981    -0.20000
C1545       C  0.68918510  0.50769131  0.11941549    -0.06500
C1546       C  0.68775358  0.48427207  0.09249589     0.14300
C1547       C  0.70810756  0.47035534  0.09895792    -0.23400
H1548       H  0.66613188  0.45618418  0.03740441     0.15600
H1549       H  0.66886610  0.53608450  0.13270152     0.15600
C1550       C  0.62552295  0.51998271  0.07329532    -0.23300
H1551       H  0.70359218  0.45228831  0.07513727     0.05900
H1552       H  0.70368522  0.45938430  0.13055101     0.09100
H1553       H  0.73274673  0.48848093  0.09608254     0.09100
H1554       H  0.60141390  0.50037676  0.07297715     0.09100
H1555       H  0.63032198  0.53334149  0.04361834     0.09100
H1556       H  0.62753908  0.53554646  0.09962029     0.05800
C1557       C  0.32486668  0.50994168  0.22077843    -0.20000
C1558       C  0.29721226  0.48258581  0.21177667    -0.06500
C1559       C  0.29670924  0.46404504  0.17733168     0.14300
C1560       C  0.32327834  0.47403196  0.15240697    -0.20000
C1561       C  0.35005279  0.50229374  0.15992181    -0.06500
C1562       C  0.35116590  0.52013209  0.19521708     0.14300
C1563       C  0.38007930  0.54976170  0.20649074    -0.23400
H1564       H  0.32573103  0.52403083  0.24728055     0.15600
H1565       H  0.32258069  0.46045343  0.12533158     0.15600
C1566       C  0.26832576  0.43411408  0.16540464    -0.23300
H1567       H  0.37746986  0.55945130  0.23674205     0.05900
H1568       H  0.38552717  0.56743319  0.18178046     0.09100
H1569       H  0.39969971  0.54542064  0.20989634     0.09100
H1570       H  0.24949901  0.43850891  0.15587185     0.09100
H1571       H  0.26080050  0.41781053  0.19238764     0.09100
H1572       H  0.27271132  0.42270259  0.13833139     0.05800
C1573       C  0.49768454  0.62250309  0.15820712    -0.20000
C1574       C  0.48136453  0.62426853  0.12311813    -0.06500
C1575       C  0.48311105  0.65286166  0.11397267     0.14300
C1576       C  0.49951734  0.67799903  0.14130183    -0.20000
C1577       C  0.51454871  0.67566452  0.17725157    -0.06500
C1578       C  0.51415597  0.64771143  0.18534636     0.14300
C1579       C  0.52945865  0.64367501  0.22383978    -0.23400
H1580       H  0.49679813  0.60088809  0.16538398     0.15600
H1581       H  0.49997107  0.69955347  0.13516542     0.15600
C1582       C  0.46709203  0.65711623  0.07649216    -0.23300
H1583       H  0.52582840  0.61992430  0.22608820     0.05900
H1584       H  0.51974636  0.64813866  0.25277556     0.09100
H1585       H  0.55471360  0.65992412  0.22248655     0.09100
H1586       H  0.44177109  0.64142762  0.07905181     0.09100
H1587       H  0.47592111  0.65234788  0.04694318     0.09100
H1588       H  0.47123901  0.68105923  0.07440363     0.05800
C1589       C  0.33089729  0.48542265  0.95078744    -0.20000
C1590       C  0.35275139  0.51686120  0.95627277    -0.06500
C1591       C  0.35215373  0.53858038  0.92801029     0.14300
C1592       C  0.33067737  0.52809775  0.89455974    -0.20000
C1593       C  0.31016758  0.49652836  0.88800782    -0.06500
C1594       C  0.30988708  0.47499059  0.91715583     0.14300
C1595       C  0.28712408  0.44089566  0.91358941    -0.23400
H1596       H  0.33049864  0.46857296  0.97261654     0.15600
H1597       H  0.33069081  0.54459190  0.87239804     0.15600
C1598       C  0.37435002  0.57269566  0.93199563    -0.23300
H1599       H  0.28868726  0.42779362  0.94083020     0.05900
H1600       H  0.29178058  0.43135661  0.88470616     0.09100
H1601       H  0.26322533  0.43698901  0.91260167     0.09100
H1602       H  0.39844951  0.57738554  0.92893787     0.09100
H1603       H  0.37115740  0.58110222  0.96296660     0.09100
H1604       H  0.37061418  0.58607121  0.90705975     0.05800
C1605       C  0.48600437  0.48615419  0.03633285    -0.20000
C1606       C  0.48468549  0.51011942  0.01513075    -0.06500
C1607       C  0.50478960  0.52436877  0.98030701     0.14300
C1608       C  0.52427419  0.51328107  0.96681852    -0.20000
C1609       C  0.52502611  0.48880162  0.98741595    -0.06500
C1610       C  0.50596780  0.47552227  0.02342356     0.14300
C1611       C  0.50639380  0.45032395  0.04903070    -0.23400
H1612       H  0.47124199  0.47553051  0.06344776     0.15600
H1613       H  0.53912514  0.52397053  0.93979884     0.15600
C1614       C  0.50630743  0.55137251  0.95698568    -0.23300
H1615       H  0.49052407  0.44345447  0.07653557     0.05900
H1616       H  0.52999407  0.45849726  0.06145537     0.09100
H1617       H  0.49887352  0.42944633  0.02928337     0.09100
H1618       H  0.51300704  0.57096017  0.97903760     0.09100
H1619       H  0.48360214  0.54455880  0.94245216     0.09100
H1620       H  0.52370656  0.55966863  0.93121297     0.05800
loop_ 
_geom_bond_atom_site_label_1 
_geom_bond_atom_site_label_2 
_geom_bond_distance 
_geom_bond_site_symmetry_2 
_ccdc_geom_bond_type 
O1            C4   1.269   1_554  A
O1           Cd6   2.509       .  S
C2           O11   1.267       .  A
C2            O7   1.270       .  A
C2         C1574   1.492       .  S
O3            C9   1.270       .  A
O3           Cd6   2.490       .  S
C4           O12   1.265   1_556  A
C4         C1590   1.498       .  S
C5           O10   1.269       .  A
C5            O8   1.264       .  A
C5         C1606   1.494       .  S
Cd6          O13   2.424       .  S
Cd6          O12   2.443       .  S
Cd6          O11   2.431       .  S
Cd6           O7   2.469       .  S
Cd6          O10   2.479       .  S
Cd6           O8   2.450       .  S
C9           O13   1.262       .  A
C9         C1561   1.479       .  S
O14          C17   1.272       .  A
O14         Cd19   2.501       .  S
C15          O24   1.263   1_554  A
C15          O20   1.271       .  A
C15        C1542   1.484       .  S
O16          C22   1.269       .  A
O16         Cd19   2.481       .  S
C17          O25   1.263       .  A
C17        C1529   1.493       .  S
C18          O23   1.271       .  A
C18          O21   1.265       .  A
C18        C1609   1.493       .  S
Cd19         O26   2.427       .  S
Cd19         O25   2.422       .  S
Cd19         O24   2.429       .  S
Cd19         O20   2.506   1_556  S
Cd19         O23   2.470       .  S
Cd19         O21   2.433       .  S
C22          O26   1.263       .  A
C22        C1513   1.477       .  S
O27          C30   1.268       .  A
O27         Cd32   2.500       .  S
C28          O37   1.265       .  A
C28          O33   1.268       .  A
C28        C1465   1.495       .  S
O29          C35   1.271       .  A
O29         Cd32   2.490       .  S
C30          O38   1.263       .  A
C30        C1478   1.483       .  S
C31          O36   1.270       .  A
C31          O34   1.261       .  A
C31        C1494   1.493       .  S
Cd32         O39   2.431       .  S
Cd32         O38   2.450       .  S
Cd32         O37   2.447       .  S
Cd32         O33   2.486       .  S
Cd32         O36   2.511       .  S
Cd32         O34   2.428       .  S
C35          O39   1.266       .  A
C35        C1446   1.487       .  S
O40          C43   1.271       .  A
O40         Cd45   2.477       .  S
C41          O50   1.265       .  A
C41          O46   1.268       .  A
C41        C1545   1.498       .  S
O42          C48   1.271       .  A
O42         Cd45   2.510       .  S
C43          O51   1.265       .  A
C43        C1430   1.491       .  S
C44          O49   1.270       .  A
C44          O47   1.264       .  A
C44        C1497   1.495       .  S
Cd45         O52   2.428       .  S
Cd45         O51   2.443       .  S
Cd45         O50   2.452       .  S
Cd45         O46   2.501       .  S
Cd45         O49   2.477       .  S
Cd45         O47   2.458       .  S
C48          O52   1.262       .  A
C48        C1414   1.486       .  S
O53          C56   1.266       .  A
O53         Cd58   2.505       .  S
C54          O63   1.265       .  A
C54          O59   1.268       .  A
C54        C1366   1.485       .  S
O55          C61   1.268       .  A
O55         Cd58   2.476       .  S
C56          O64   1.263       .  A
C56        C1382   1.481       .  S
C57          O62   1.270       .  A
C57          O60   1.263       .  A
C57        C1350   1.488       .  S
Cd58         O65   2.453       .  S
Cd58         O64   2.460       .  S
Cd58         O63   2.455       .  S
Cd58         O59   2.467       .  S
Cd58         O62   2.507       .  S
Cd58         O60   2.436       .  S
C61          O65   1.265       .  A
C61        C1398   1.495       .  S
O66          C69   1.266       .  A
O66         Cd71   2.484       .  S
C67          O76   1.264       .  A
C67          O72   1.268       .  A
C67        C1337   1.491       .  S
O68          C74   1.270       .  A
O68         Cd71   2.511       .  S
C69          O77   1.265       .  A
C69        C1481   1.484       .  S
C70          O75   1.268       .  A
C70          O73   1.264       .  A
C70        C1401   1.497       .  S
Cd71         O78   2.440       .  S
Cd71         O77   2.459       .  S
Cd71         O76   2.449       .  S
Cd71         O72   2.487       .  S
Cd71         O75   2.505       .  S
Cd71         O73   2.450       .  S
C74          O78   1.263       .  A
C74        C1318   1.489       .  S
O79          C82   1.269       .  A
O79         Cd84   2.515       .  S
C80          O89   1.266       .  A
C80          O85   1.270       .  A
C80        C1270   1.486       .  S
O81          C87   1.269       .  A
O81         Cd84   2.494       .  S
C82          O90   1.263       .  A
C82        C1286   1.486       .  S
C83          O88   1.270       .  A
C83          O86   1.265       .  A
C83        C1302   1.498       .  S
Cd84         O91   2.452       .  S
Cd84         O90   2.433       .  S
Cd84         O89   2.425       .  S
Cd84         O85   2.479       .  S
Cd84         O88   2.492       .  S
Cd84         O86   2.462       .  S
C87          O91   1.263       .  A
C87        C1254   1.482       .  S
O92          C95   1.267       .  A
O92         Cd97   2.467       .  S
C93         O102   1.265       .  A
C93          O98   1.267       .  A
C93        C1385   1.489       .  S
O94         C100   1.269       .  A
O94         Cd97   2.489       .  S
C95         O103   1.266       .  A
C95        C1238   1.487       .  S
C96         O101   1.269       .  A
C96          O99   1.263       .  A
C96        C1305   1.498       .  S
Cd97        O104   2.438       .  S
Cd97        O103   2.463       .  S
Cd97        O102   2.473       .  S
Cd97         O98   2.477       .  S
Cd97        O101   2.492       .  S
Cd97         O99   2.466       .  S
C100        O104   1.264       .  A
C100       C1222   1.484       .  S
O105        C108   1.269       .  A
O105       Cd110   2.480       .  S
C106        O115   1.264       .  A
C106        O111   1.268       .  A
C106       C1190   1.492       .  S
O107        C113   1.268       .  A
O107       Cd110   2.484       .  S
C108        O116   1.266       .  A
C108       C1177   1.488       .  S
C109        O114   1.267       .  A
C109        O112   1.266       .  A
C109       C1206   1.492       .  S
Cd110       O117   2.436       .  S
Cd110       O116   2.433       .  S
Cd110       O115   2.425       .  S
Cd110       O111   2.503       .  S
Cd110       O114   2.476       .  S
Cd110       O112   2.451       .  S
C113        O117   1.265       .  A
C113       C1158   1.485       .  S
O118        C121   1.268       .  A
O118       Cd123   2.482       .  S
C119        O128   1.265       .  A
C119        O124   1.268       .  A
C119       C1289   1.496       .  S
O120        C126   1.267       .  A
O120       Cd123   2.473       .  S
C121        O129   1.266       .  A
C121       C1142   1.492       .  S
C122        O127   1.268       .  A
C122        O125   1.264       .  A
C122       C1129   1.484       .  S
Cd123       O130   2.453       .  S
Cd123       O129   2.466       .  S
Cd123       O128   2.446       .  S
Cd123       O124   2.502       .  S
Cd123       O127   2.510       .  S
Cd123       O125   2.409       .  S
C126        O130   1.266       .  A
C126       C1209   1.494       .  S
O131        C134   1.272       .  A
O131       Cd136   2.486       .  S
C132        O141   1.263       .  A
C132        O137   1.270       .  A
C132       C1593   1.487       .  S
O133        C139   1.271       .  A
O133       Cd136   2.470       .  S
C134        O142   1.264       .  A
C134       C1094   1.492       .  S
C135        O140   1.269       .  A
C135        O138   1.263       .  A
C135       C1081   1.480       .  S
Cd136       O143   2.448       .  S
Cd136       O142   2.428       .  S
Cd136       O141   2.438       .  S
Cd136       O137   2.518       .  S
Cd136       O140   2.498       .  S
Cd136       O138   2.432       .  S
C139        O143   1.266       .  A
C139       C1110   1.490       .  S
O144        C147   1.267       .  A
O144       Cd149   2.457       .  S
C145        O154   1.264       .  A
C145        O150   1.267       .  A
C145       C1193   1.470       .  S
O146        C152   1.269       .  A
O146       Cd149   2.500       .  S
C147        O155   1.267       .  A
C147       C1062   1.486       .  S
C148        O153   1.270       .  A
C148        O151   1.263       .  A
C148       C1113   1.497       .  S
Cd149       O156   2.435       .  S
Cd149       O155   2.446       .  S
Cd149       O154   2.429       .  S
Cd149       O150   2.483       .  S
Cd149       O153   2.502       .  S
Cd149       O151   2.443       .  S
C152        O156   1.261       .  A
C152       C1046   1.485       .  S
O157        C160   1.271       .  A
O157       Cd162   2.499       .  S
C158        O167   1.263       .  A
C158        O163   1.270       .  A
C158       C1017   1.490       .  S
O159        C165   1.268       .  A
O159       Cd162   2.500       .  S
C160        O168   1.264       .  A
C160       C1321   1.496       .  S
C161        O166   1.270       .  A
C161        O164   1.267       .  A
C161       C1030   1.488       .  S
Cd162       O169   2.428       .  S
Cd162       O168   2.454       .  S
Cd162       O167   2.442       .  S
Cd162       O163   2.515       .  S
Cd162       O166   2.462       .  S
Cd162       O164   2.449       .  S
C165        O169   1.263       .  A
C165        C998   1.480       .  S
O170        C173   1.270       .  A
O170       Cd175   2.476       .  S
C171        O180   1.265       .  A
C171        O176   1.268       .  A
C171        C982   1.493       .  S
O172        C178   1.270       .  A
O172       Cd175   2.480       .  S
C173        O181   1.264       .  A
C173       C1510   1.481       .  S
C174        O179   1.269       .  A
C174        O177   1.263       .  A
C174        C966   1.484       .  S
Cd175       O182   2.455       .  S
Cd175       O181   2.412       .  S
Cd175       O180   2.425       .  S
Cd175       O176   2.501       .  S
Cd175       O179   2.493       .  S
Cd175       O177   2.434       .  S
C178        O182   1.265       .  A
C178       C1033   1.490       .  S
O183        C186   1.269       .  A
O183       Cd188   2.484       .  S
C184        O193   1.264       .  A
C184        O189   1.270       .  A
C184        C918   1.485       .  S
O185        C191   1.270       .  A
O185       Cd188   2.501       .  S
C186        O194   1.266       .  A
C186        C937   1.489       .  S
C187        O192   1.271       .  A
C187        O190   1.265       .  A
C187        C953   1.497       .  S
Cd188       O195   2.430       .  S
Cd188       O194   2.429       .  S
Cd188       O193   2.434       .  S
Cd188       O189   2.477       .  S
Cd188       O192   2.482       .  S
Cd188       O190   2.460       .  S
C191        O195   1.263       .  A
C191       C1065   1.484       .  S
O196        C199   1.268       .  A
O196       Cd201   2.478       .  S
C197        O206   1.265       .  A
C197        O202   1.268       .  A
C197        C902   1.485       .  S
O198        C204   1.269       .  A
O198       Cd201   2.499       .  S
C199        O207   1.266       .  A
C199        C886   1.491       .  S
C200        O205   1.271       .  A
C200        O203   1.264       .  A
C200        C950   1.496       .  S
Cd201       O208   2.441       .  S
Cd201       O207   2.446       .  S
Cd201       O206   2.432       .  S
Cd201       O202   2.492       .  S
Cd201       O205   2.492       .  S
Cd201       O203   2.440       .  S
C204        O208   1.263       .  A
C204       C1273   1.486       .  S
O209        C212   1.268       .  A
O209       Cd214   2.457       .  S
C210        O219   1.263       .  A
C210        O215   1.268       .  A
C210        C985   1.486       .  S
O211        C217   1.268       .  A
O211       Cd214   2.482       .  S
C212        O220   1.266       .  A
C212        C857   1.479       .  S
C213        O218   1.262       .  A
C213        O216   1.268       .  A
C213       C1433   1.480       .  S
Cd214       O221   2.446       .  S
Cd214       O220   2.446       .  S
Cd214       O219   2.426       .  S
Cd214       O215   2.504       .  S
Cd214       O218   2.435       .  S
Cd214       O216   2.491       .  S
C217        O221   1.266       .  A
C217        C870   1.494       .  S
O222        C225   1.268       .  A
O222       Cd227   2.473       .  S
C223        O232   1.263       .  A
C223        O228   1.267       .  A
C223        C838   1.487       .  S
O224        C230   1.270       .  A
O224       Cd227   2.486       .  S
C225        O233   1.266       .  A
C225        C825   1.491       .  S
C226        O231   1.267       .  A
C226        O229   1.265       .  A
C226        C873   1.493       .  S
Cd227       O234   2.432       .  S
Cd227       O233   2.462       .  S
Cd227       O232   2.456       .  S
Cd227       O228   2.493       .  S
Cd227       O231   2.478       .  S
Cd227       O229   2.454       .  S
C230        O234   1.264       .  A
C230       C1097   1.478       .  S
O235        C238   1.262       .  A
O235       Cd240   2.411       .  S
C236        O245   1.266       .  A
C236        O241   1.270       .  A
C236       C1161   1.484       .  S
O237        C243   1.264       .  A
O237       Cd240   2.417       .  S
C238        O246   1.271       .  A
C238        C934   1.485       .  S
C239        O244   1.270       .  A
C239        O242   1.265       .  A
C239        C806   1.489       .  S
Cd240       O247   2.474       .  S
Cd240       O246   2.498       .  S
Cd240       O245   2.441       .  S
Cd240       O241   2.472       .  S
Cd240       O244   2.462       .  S
Cd240       O242   2.425       .  S
C243        O247   1.268       .  A
C243        C790   1.479       .  S
O248        C251   1.272       .  A
O248       Cd253   2.488       .  S
C249        O258   1.263       .  A
C249        O254   1.269       .  A
C249        C841   1.482       .  S
O250        C256   1.269       .  A
O250       Cd253   2.464       .  S
C251        O259   1.262       .  A
C251       C1558   1.492       .  S
C252        O257   1.268       .  A
C252        O255   1.263       .  A
C252        C809   1.489       .  S
Cd253       O260   2.413       .  S
Cd253       O259   2.420       .  S
Cd253       O258   2.444       .  S
Cd253       O254   2.502       .  S
Cd253       O257   2.463       .  S
Cd253       O255   2.437       .  S
C256        O260   1.267       .  A
C256        C774   1.483       .  S
O261        C264   1.269   1_554  A
O261       Cd266   2.491       .  S
C262        O271   1.264       .  A
C262        O267   1.271       .  A
C262       C1353   1.491       .  S
O263        C269   1.269       .  A
O263       Cd266   2.501       .  S
C264        O272   1.265   1_556  A
C264        C742   1.487       .  S
C265        O270   1.269       .  A
C265        O268   1.266       .  A
C265        C761   1.495       .  S
Cd266       O273   2.449       .  S
Cd266       O272   2.419       .  S
Cd266       O271   2.435       .  S
Cd266       O267   2.478       .  S
Cd266       O270   2.479       .  S
Cd266       O268   2.451       .  S
C269        O273   1.263       .  A
C269        C726   1.483       .  S
O274        C277   1.268       .  A
O274       Cd279   2.452       .  S
C275        O284   1.264   1_554  A
C275        O280   1.269   1_554  A
C275        C905   1.490       .  S
O276        C282   1.270       .  A
O276       Cd279   2.496       .  S
C277        O285   1.266       .  A
C277       C1126   1.482       .  S
C278        O283   1.269       .  A
C278        O281   1.265       .  A
C278        C758   1.491       .  S
Cd279       O286   2.428       .  S
Cd279       O285   2.445       .  S
Cd279       O284   2.428       .  S
Cd279       O280   2.487       .  S
Cd279       O283   2.485       .  S
Cd279       O281   2.425       .  S
C282        O286   1.262       .  A
C282        C710   1.482       .  S
O287        C290   1.271       .  A
O287       Cd292   2.491       .  S
C288        O297   1.264       .  A
C288        O293   1.270       .  A
C288       C1014   1.496       .  S
O289        C295   1.268       .  A
O289       Cd292   2.487       .  S
C290        O298   1.266       .  A
C290        C678   1.493       .  S
C291        O296   1.270       .  A
C291        O294   1.265       .  A
C291        C694   1.496       .  S
Cd292       O299   2.444       .  S
Cd292       O298   2.440       .  S
Cd292       O297   2.430       .  S
Cd292       O293   2.509       .  S
Cd292       O296   2.484       .  S
Cd292       O294   2.448       .  S
C295        O299   1.264       .  A
C295       C1462   1.479       .  S
O300        C303   1.269       .  A
O300       Cd305   2.494       .  S
C301        O310   1.266       .  A
C301        O306   1.268       .  A
C301        C662   1.485       .  S
O302        C308   1.269       .  A
O302       Cd305   2.500       .  S
C303        O311   1.263       .  A
C303        C745   1.479       .  S
C304        O309   1.270       .  A
C304        O307   1.264       .  A
C304        C697   1.494       .  S
Cd305       O312   2.427       .  S
Cd305       O311   2.415       .  S
Cd305       O310   2.452       .  S
Cd305       O306   2.468       .  S
Cd305       O309   2.482       .  S
Cd305       O307   2.450       .  S
C308        O312   1.264       .  A
C308       C1241   1.485       .  S
O313        C316   1.269   1_554  A
O313       Cd318   2.493       .  S
C314        O323   1.266       .  A
C314        O319   1.268       .  A
C314        C777   1.483       .  S
O315        C321   1.269       .  A
O315       Cd318   2.508       .  S
C316        O324   1.263   1_556  A
C316        C633   1.478       .  S
C317        O322   1.271       .  A
C317        O320   1.265       .  A
C317        C646   1.496       .  S
Cd318       O325   2.426       .  S
Cd318       O324   2.410       .  S
Cd318       O323   2.433       .  S
Cd318       O319   2.463       .  S
Cd318       O322   2.479       .  S
Cd318       O320   2.447       .  S
C321        O325   1.263       .  A
C321       C1369   1.491       .  S
O326        C329   1.268       .  A
O326       Cd331   2.481       .  S
C327        O336   1.265   1_554  A
C327        O332   1.267       .  A
C327        C614   1.490       .  S
O328        C334   1.269       .  A
O328       Cd331   2.509       .  S
C329        O337   1.266       .  A
C329        C969   1.485       .  S
C330        O335   1.270       .  A
C330        O333   1.264       .  A
C330        C649   1.497       .  S
Cd331       O338   2.436       .  S
Cd331       O337   2.430       .  S
Cd331       O336   2.429       .  S
Cd331       O332   2.480   1_556  S
Cd331       O335   2.486       .  S
Cd331       O333   2.461       .  S
C334        O338   1.263       .  A
C334       C1145   1.485       .  S
O339        C342   1.268       .  A
O339       Cd344   2.458       .  S
C340        O349   1.263       .  A
C340        O345   1.269       .  A
C340        C582   1.488       .  S
O341        C347   1.270       .  A
O341       Cd344   2.483       .  S
C342        O350   1.266       .  A
C342        C793   1.481       .  S
C343        O348   1.268       .  A
C343        O346   1.266       .  A
C343        C598   1.495       .  S
Cd344       O351   2.426       .  S
Cd344       O350   2.436       .  S
Cd344       O349   2.445       .  S
Cd344       O345   2.496       .  S
Cd344       O348   2.476       .  S
Cd344       O346   2.454       .  S
C347        O351   1.263       .  A
C347       C1334   1.479       .  S
O352        C355   1.269       .  A
O352       Cd357   2.514       .  S
C353        O362   1.263       .  A
C353        O358   1.272       .  A
C353        C713   1.489       .  S
O354        C360   1.268       .  A
O354       Cd357   2.489       .  S
C355        O363   1.264       .  A
C355        C569   1.497       .  S
C356        O361   1.268       .  A
C356        O359   1.266       .  A
C356        C601   1.494       .  S
Cd357       O364   2.454       .  S
Cd357       O363   2.442       .  S
Cd357       O362   2.421       .  S
Cd357       O358   2.486       .  S
Cd357       O361   2.473       .  S
Cd357       O359   2.448       .  S
C360        O364   1.263       .  A
C360       C1526   1.482       .  S
O365        C368   1.265       .  A
O365       Cd370   2.440       .  S
C366        O375   1.265       .  A
C366        O371   1.271       .  A
C366       C1225   1.490       .  S
O367        C373   1.268       .  A
O367       Cd370   2.502       .  S
C368        O376   1.268       .  A
C368        C630   1.497       .  S
C369        O374   1.267       .  A
C369        O372   1.267       .  A
C369        C550   1.494       .  S
Cd370       O377   2.443       .  S
Cd370       O376   2.518       .  S
Cd370       O375   2.423       .  S
Cd370       O371   2.490       .  S
Cd370       O374   2.467       .  S
Cd370       O372   2.475       .  S
C373        O377   1.265       .  A
C373        C822   1.492       .  S
O378        C381   1.267       .  A
O378       Cd383   2.477       .  S
C379        O388   1.264       .  A
C379        O384   1.267       .  A
C379        C585   1.479       .  S
O380        C386   1.270       .  A
O380       Cd383   2.495       .  S
C381        O389   1.265       .  A
C381       C1449   1.492       .  S
C382        O387   1.268       .  A
C382        O385   1.265       .  A
C382        C553   1.492       .  S
Cd383       O390   2.422       .  S
Cd383       O389   2.465       .  S
Cd383       O388   2.461       .  S
Cd383       O384   2.501       .  S
Cd383       O387   2.496       .  S
Cd383       O385   2.441       .  S
C386        O390   1.263       .  A
C386        C921   1.483       .  S
O391        C394   1.270       .  A
O391       Cd396   2.508       .  S
C392        O401   1.265       .  A
C392        O397   1.270       .  A
C392       C1417   1.488       .  S
O393        C399   1.270       .  A
O393       Cd396   2.508       .  S
C394        O402   1.264       .  A
C394        C566   1.491       .  S
C395        O400   1.272       .  A
C395        O398   1.264       .  A
C395        C534   1.499       .  S
Cd396       O403   2.444       .  S
Cd396       O402   2.440       .  S
Cd396       O401   2.444       .  S
Cd396       O397   2.487       .  S
Cd396       O400   2.510       .  S
Cd396       O398   2.442       .  S
C399        O403   1.264       .  A
C399        C889   1.488       .  S
O404        C407   1.270       .  A
O404       Cd409   2.475       .  S
C405        O414   1.265       .  A
C405        O410   1.269       .  A
C405        C518   1.492       .  S
O406        C412   1.270       .  A
O406       Cd409   2.512       .  S
C407        O415   1.265       .  A
C407       C1078   1.491       .  S
C408        O413   1.272       .  A
C408        O411   1.264       .  A
C408        C537   1.496       .  S
Cd409       O416   2.426       .  S
Cd409       O415   2.442       .  S
Cd409       O414   2.421       .  S
Cd409       O410   2.493       .  S
Cd409       O413   2.491       .  S
Cd409       O411   2.443       .  S
C412        O416   1.264       .  A
C412        C665   1.488       .  S
O417        C420   1.268       .  A
O417       Cd422   2.512       .  S
C418        O427   1.263       .  A
C418        O423   1.270       .  A
C418       C1049   1.491       .  S
O419        C425   1.269       .  A
O419       Cd422   2.491       .  S
C420        O428   1.263       .  A
C420        C486   1.487       .  S
C421        O426   1.266       .  A
C421        O424   1.265       .  A
C421        C502   1.495       .  S
Cd422       O429   2.434       .  S
Cd422       O428   2.461       .  S
Cd422       O427   2.435       .  S
Cd422       O423   2.488       .  S
Cd422       O426   2.483       .  S
Cd422       O424   2.466       .  S
C425        O429   1.265       .  A
C425        C681   1.487       .  S
O430        C433   1.269       .  A
O430       Cd435   2.499       .  S
C431        O440   1.262       .  A
C431        O436   1.270       .  A
C431        C617   1.478       .  S
O432        C438   1.267       .  A
O432       Cd435   2.483       .  S
C433        O441   1.265       .  A
C433       C1257   1.492       .  S
C434        O439   1.268       .  A
C434        O437   1.268       .  A
C434        C505   1.490       .  S
Cd435       O442   2.422       .  S
Cd435       O441   2.421       .  S
Cd435       O440   2.408       .  S
Cd435       O436   2.488       .  S
Cd435       O439   2.459       .  S
Cd435       O437   2.448       .  S
C438        O442   1.264       .  A
C438        C854   1.481       .  S
O443        C446   1.268       .  A
O443       Cd448   2.496       .  S
C444        O453   1.265       .  A
C444        O449   1.268       .  A
C444       C1001   1.488       .  S
O445        C451   1.269       .  A
O445       Cd448   2.488       .  S
C446        O454   1.264       .  A
C446        C489   1.483       .  S
C447        O452   1.267       .  A
C447        O450   1.265       .  A
C447        C470   1.496       .  S
Cd448       O455   2.443       .  S
Cd448       O454   2.463       .  S
Cd448       O453   2.450       .  S
Cd448       O449   2.477       .  S
Cd448       O452   2.489       .  S
Cd448       O450   2.468       .  S
C451        O455   1.265       .  A
C451       C1174   1.486       .  S
O456        C459   1.270       .  A
O456       Cd461   2.491       .  S
C457        O466   1.262       .  A
C457        O462   1.269       .  A
C457        C521   1.486       .  S
O458        C464   1.267       .  A
O458       Cd461   2.500       .  S
C459        O467   1.267       .  A
C459        C729   1.496       .  S
C460        O465   1.268       .  A
C460        O463   1.266       .  A
C460        C473   1.496       .  S
Cd461       O468   2.449       .  S
Cd461       O467   2.436       .  S
Cd461       O466   2.428       .  S
Cd461       O462   2.510       .  S
Cd461       O465   2.482       .  S
Cd461       O463   2.460       .  S
C464        O468   1.263       .  A
C464       C1577   1.481       .  S
C469        C470   1.408       .  A
C469        C474   1.407       .  A
C469        H476   1.084       .  S
C470        C471   1.418       .  A
C471        C472   1.407       .  A
C471        C478   1.508       .  S
C472        C473   1.408       .  A
C472        H477   1.084       .  S
C473        C474   1.418       .  A
C474        C475   1.508       .  S
C475        H479   1.111       .  S
C475        H480   1.111       .  S
C475        H481   1.110       .  S
C478        H482   1.110       .  S
C478        H483   1.110       .  S
C478        H484   1.111       .  S
C485        C486   1.406   1_565  A
C485        C490   1.406       .  A
C485        H492   1.084       .  S
C486        C487   1.415       .  A
C487        C488   1.408       .  A
C487        C494   1.506       .  S
C488        C489   1.405   1_545  A
C488        H493   1.084       .  S
C489        C490   1.413       .  A
C490        C491   1.507       .  S
C491        H495   1.111       .  S
C491        H496   1.111       .  S
C491        H497   1.110       .  S
C494        H498   1.110       .  S
C494        H499   1.110       .  S
C494        H500   1.111       .  S
C501        C502   1.408       .  A
C501        C506   1.406       .  A
C501        H508   1.084       .  S
C502        C503   1.419       .  A
C503        C504   1.405       .  A
C503        C510   1.508       .  S
C504        C505   1.405       .  A
C504        H509   1.084       .  S
C505        C506   1.417       .  A
C506        C507   1.509       .  S
C507        H511   1.111       .  S
C507        H512   1.109       .  S
C507        H513   1.111       .  S
C510        H514   1.110       .  S
C510        H515   1.110       .  S
C510        H516   1.111       .  S
C517        C518   1.406       .  A
C517        C522   1.400       .  A
C517        H524   1.083       .  S
C518        C519   1.419       .  A
C519        C520   1.410       .  A
C519        C526   1.507       .  S
C520        C521   1.405       .  A
C520        H525   1.083       .  S
C521        C522   1.417       .  A
C522        C523   1.510       .  S
C523        H527   1.111       .  S
C523        H528   1.111       .  S
C523        H529   1.109       .  S
C526        H530   1.110       .  S
C526        H531   1.110       .  S
C526        H532   1.111       .  S
C533        C534   1.406       .  A
C533        C538   1.409       .  A
C533        H540   1.084       .  S
C534        C535   1.423       .  A
C535        C536   1.406       .  A
C535        C542   1.509       .  S
C536        C537   1.403       .  A
C536        H541   1.084       .  S
C537        C538   1.422       .  A
C538        C539   1.509       .  S
C539        H543   1.111       .  S
C539        H544   1.111       .  S
C539        H545   1.110       .  S
C542        H546   1.110       .  S
C542        H547   1.110       .  S
C542        H548   1.111       .  S
C549        C550   1.408       .  A
C549        C554   1.409       .  A
C549        H556   1.083       .  S
C550        C551   1.418       .  A
C551        C552   1.404       .  A
C551        C558   1.508       .  S
C552        C553   1.405       .  A
C552        H557   1.084       .  S
C553        C554   1.417       .  A
C554        C555   1.507       .  S
C555        H559   1.111       .  S
C555        H560   1.110       .  S
C555        H561   1.110       .  S
C558        H562   1.110       .  S
C558        H563   1.110       .  S
C558        H564   1.111       .  S
C565        C566   1.406       .  A
C565        C570   1.412       .  A
C565        H572   1.084       .  S
C566        C567   1.417       .  A
C567        C568   1.403       .  A
C567        C574   1.510       .  S
C568        C569   1.407       .  A
C568        H573   1.084       .  S
C569        C570   1.419       .  A
C570        C571   1.506       .  S
C571        H575   1.111       .  S
C571        H576   1.110       .  S
C571        H577   1.110       .  S
C574        H578   1.109       .  S
C574        H579   1.111       .  S
C574        H580   1.111       .  S
C581        C582   1.405       .  A
C581        C586   1.406       .  A
C581        H588   1.083       .  S
C582        C583   1.420   1_545  A
C583        C584   1.407       .  A
C583        C590   1.509       .  S
C584        C585   1.401       .  A
C584        H589   1.084       .  S
C585        C586   1.412   1_565  A
C586        C587   1.507       .  S
C587        H591   1.111       .  S
C587        H592   1.109       .  S
C587        H593   1.111       .  S
C590        H594   1.109       .  S
C590        H595   1.111       .  S
C590        H596   1.111       .  S
C597        C598   1.408       .  A
C597        C602   1.406       .  A
C597        H604   1.084       .  S
C598        C599   1.418       .  A
C599        C600   1.405       .  A
C599        C606   1.508       .  S
C600        C601   1.407       .  A
C600        H605   1.084       .  S
C601        C602   1.418       .  A
C602        C603   1.508       .  S
C603        H607   1.111       .  S
C603        H608   1.110       .  S
C603        H609   1.110       .  S
C606        H610   1.110       .  S
C606        H611   1.110       .  S
C606        H612   1.111       .  S
C613        C614   1.406       .  A
C613        C618   1.399       .  A
C613        H620   1.083       .  S
C614        C615   1.420       .  A
C615        C616   1.407       .  A
C615        C622   1.507       .  S
C616        C617   1.402       .  A
C616        H621   1.084       .  S
C617        C618   1.414       .  A
C618        C619   1.510       .  S
C619        H623   1.111       .  S
C619        H624   1.111       .  S
C619        H625   1.109       .  S
C622        H626   1.110       .  S
C622        H627   1.110       .  S
C622        H628   1.111       .  S
C629        C630   1.408       .  A
C629        C634   1.400       .  A
C629        H636   1.083       .  S
C630        C631   1.421       .  A
C631        C632   1.410       .  A
C631        C638   1.506       .  S
C632        C633   1.403       .  A
C632        H637   1.084       .  S
C633        C634   1.412       .  A
C634        C635   1.510       .  S
C635        H639   1.111       .  S
C635        H640   1.109       .  S
C635        H641   1.111       .  S
C638        H642   1.110       .  S
C638        H643   1.110       .  S
C638        H644   1.111       .  S
C645        C646   1.405       .  A
C645        C650   1.407   1_455  A
C645        H652   1.084       .  S
C646        C647   1.421   1_554  A
C647        C648   1.406   1_455  A
C647        C654   1.509       .  S
C648        C649   1.405       .  A
C648        H653   1.084       .  S
C649        C650   1.421   1_556  A
C650        C651   1.508       .  S
C651        H655   1.111       .  S
C651        H656   1.110       .  S
C651        H657   1.110       .  S
C654        H658   1.110       .  S
C654        H659   1.110       .  S
C654        H660   1.111       .  S
C661        C662   1.406       .  A
C661        C666   1.407       .  A
C661        H668   1.084       .  S
C662        C663   1.415       .  A
C663        C664   1.403       .  A
C663        C670   1.508       .  S
C664        C665   1.406       .  A
C664        H669   1.084       .  S
C665        C666   1.416       .  A
C666        C667   1.506       .  S
C667        H671   1.111       .  S
C667        H672   1.110       .  S
C667        H673   1.110       .  S
C670        H674   1.111       .  S
C670        H675   1.110       .  S
C670        H676   1.111       .  S
C677        C678   1.409       .  A
C677        C682   1.406   1_556  A
C677        H684   1.083       .  S
C678        C679   1.418       .  A
C679        C680   1.406   1_565  A
C679        C686   1.507       .  S
C680        C681   1.406   1_556  A
C680        H685   1.084       .  S
C681        C682   1.414   1_545  A
C682        C683   1.508       .  S
C683        H687   1.111       .  S
C683        H688   1.110   1_565  S
C683        H689   1.111       .  S
C686        H690   1.110       .  S
C686        H691   1.110       .  S
C686        H692   1.111   1_565  S
C693        C694   1.406       .  A
C693        C698   1.406       .  A
C693        H700   1.084       .  S
C694        C695   1.422       .  A
C695        C696   1.406       .  A
C695        C702   1.509       .  S
C696        C697   1.404       .  A
C696        H701   1.084       .  S
C697        C698   1.420       .  A
C698        C699   1.509       .  S
C699        H703   1.111       .  S
C699        H704   1.110       .  S
C699        H705   1.111       .  S
C702        H706   1.110       .  S
C702        H707   1.110       .  S
C702        H708   1.111       .  S
C709        C710   1.401       .  A
C709        C714   1.405       .  A
C709        H716   1.085       .  S
C710        C711   1.416       .  A
C711        C712   1.404       .  A
C711        C718   1.509       .  S
C712        C713   1.405       .  A
C712        H717   1.084       .  S
C713        C714   1.422       .  A
C714        C715   1.509       .  S
C715        H719   1.111       .  S
C715        H720   1.110       .  S
C715        H721   1.109       .  S
C718        H722   1.110       .  S
C718        H723   1.109       .  S
C718        H724   1.111       .  S
C725        C726   1.404       .  A
C725        C730   1.409       .  A
C725        H732   1.084       .  S
C726        C727   1.412       .  A
C727        C728   1.404       .  A
C727        C734   1.508       .  S
C728        C729   1.409       .  A
C728        H733   1.083       .  S
C729        C730   1.420       .  A
C730        C731   1.507       .  S
C731        H735   1.111       .  S
C731        H736   1.110       .  S
C731        H737   1.110       .  S
C734        H738   1.110       .  S
C734        H739   1.111       .  S
C734        H740   1.111       .  S
C741        C742   1.404       .  A
C741        C746   1.398       .  A
C741        H748   1.088       .  S
C742        C743   1.418       .  A
C743        C744   1.407       .  A
C743        C750   1.506       .  S
C744        C745   1.402       .  A
C744        H749   1.091       .  S
C745        C746   1.414       .  A
C746        C747   1.510       .  S
C747        H751   1.111       .  S
C747        H752   1.109       .  S
C747        H753   1.110       .  S
C750        H754   1.109       .  S
C750        H755   1.110       .  S
C750        H756   1.112       .  S
C757        C758   1.407   1_554  A
C757        C762   1.404       .  A
C757        H764   1.084       .  S
C758        C759   1.416       .  A
C759        C760   1.407   1_545  A
C759        C766   1.508       .  S
C760        C761   1.409   1_556  A
C760        H765   1.084       .  S
C761        C762   1.417   1_565  A
C762        C763   1.508       .  S
C763        H767   1.111       .  S
C763        H768   1.110   1_545  S
C763        H769   1.110   1_545  S
C766        H770   1.110       .  S
C766        H771   1.110       .  S
C766        H772   1.111   1_545  S
C773        C774   1.405       .  A
C773        C778   1.402       .  A
C773        H780   1.084       .  S
C774        C775   1.415       .  A
C775        C776   1.404       .  A
C775        C782   1.508       .  S
C776        C777   1.406       .  A
C776        H781   1.084       .  S
C777        C778   1.416       .  A
C778        C779   1.508       .  S
C779        H783   1.111       .  S
C779        H784   1.110       .  S
C779        H785   1.110       .  S
C782        H786   1.110       .  S
C782        H787   1.110       .  S
C782        H788   1.111       .  S
C789        C790   1.404       .  A
C789        C794   1.402       .  A
C789        H796   1.085       .  S
C790        C791   1.414       .  A
C791        C792   1.404       .  A
C791        C798   1.507       .  S
C792        C793   1.406       .  A
C792        H797   1.084       .  S
C793        C794   1.415       .  A
C794        C795   1.508       .  S
C795        H799   1.111       .  S
C795        H800   1.109       .  S
C795        H801   1.111       .  S
C798        H802   1.110       .  S
C798        H803   1.111       .  S
C798        H804   1.111       .  S
C805        C806   1.405       .  A
C805        C810   1.404       .  A
C805        H812   1.083       .  S
C806        C807   1.419       .  A
C807        C808   1.403       .  A
C807        C814   1.509       .  S
C808        C809   1.404       .  A
C808        H813   1.083       .  S
C809        C810   1.420       .  A
C810        C811   1.509       .  S
C811        H815   1.111       .  S
C811        H816   1.110       .  S
C811        H817   1.110       .  S
C814        H818   1.110       .  S
C814        H819   1.110       .  S
C814        H820   1.111       .  S
C821        C822   1.406       .  A
C821        C826   1.404       .  A
C821        H828   1.084       .  S
C822        C823   1.417       .  A
C823        C824   1.408       .  A
C823        C830   1.507       .  S
C824        C825   1.407       .  A
C824        H829   1.084       .  S
C825        C826   1.417       .  A
C826        C827   1.508       .  S
C827        H831   1.111       .  S
C827        H832   1.110       .  S
C827        H833   1.110       .  S
C830        H834   1.110       .  S
C830        H835   1.110       .  S
C830        H836   1.111       .  S
C837        C838   1.407       .  A
C837        C842   1.406       .  A
C837        H844   1.084       .  S
C838        C839   1.416       .  A
C839        C840   1.406       .  A
C839        C846   1.507       .  S
C840        C841   1.404       .  A
C840        H845   1.084       .  S
C841        C842   1.413       .  A
C842        C843   1.507       .  S
C843        H847   1.111       .  S
C843        H848   1.110       .  S
C843        H849   1.111       .  S
C846        H850   1.110       .  S
C846        H851   1.110       .  S
C846        H852   1.111       .  S
C853        C854   1.404       .  A
C853        C858   1.401       .  A
C853        H860   1.084       .  S
C854        C855   1.415       .  A
C855        C856   1.406       .  A
C855        C862   1.507       .  S
C856        C857   1.405       .  A
C856        H861   1.084       .  S
C857        C858   1.414       .  A
C858        C859   1.508       .  S
C859        H863   1.111       .  S
C859        H864   1.111       .  S
C859        H865   1.109       .  S
C862        H866   1.111       .  S
C862        H867   1.110       .  S
C862        H868   1.111       .  S
C869        C870   1.407       .  A
C869        C874   1.405   1_655  A
C869        H876   1.083       .  S
C870        C871   1.418   1_655  A
C871        C872   1.406       .  A
C871        C878   1.508       .  S
C872        C873   1.408       .  A
C872        H877   1.084       .  S
C873        C874   1.417       .  A
C874        C875   1.508       .  S
C875        H879   1.111   1_455  S
C875        H880   1.110       .  S
C875        H881   1.110       .  S
C878        H882   1.110   1_455  S
C878        H883   1.110   1_455  S
C878        H884   1.111       .  S
C885        C886   1.408       .  A
C885        C890   1.406       .  A
C885        H892   1.084       .  S
C886        C887   1.418       .  A
C887        C888   1.406       .  A
C887        C894   1.508       .  S
C888        C889   1.406       .  A
C888        H893   1.084       .  S
C889        C890   1.414       .  A
C890        C891   1.506       .  S
C891        H895   1.111       .  S
C891        H896   1.110       .  S
C891        H897   1.110       .  S
C894        H898   1.111       .  S
C894        H899   1.110       .  S
C894        H900   1.111       .  S
C901        C902   1.402       .  A
C901        C906   1.401       .  A
C901        H908   1.084       .  S
C902        C903   1.415       .  A
C903        C904   1.408       .  A
C903        C910   1.506       .  S
C904        C905   1.408       .  A
C904        H909   1.083       .  S
C905        C906   1.420       .  A
C906        C907   1.509       .  S
C907        H911   1.111       .  S
C907        H912   1.110       .  S
C907        H913   1.110       .  S
C910        H914   1.110       .  S
C910        H915   1.110       .  S
C910        H916   1.111       .  S
C917        C918   1.403       .  A
C917        C922   1.404   1_545  A
C917        H924   1.084       .  S
C918        C919   1.419       .  A
C919        C920   1.406   1_554  A
C919        C926   1.508       .  S
C920        C921   1.403   1_545  A
C920        H925   1.085       .  S
C921        C922   1.418   1_556  A
C922        C923   1.509       .  S
C923        H927   1.111       .  S
C923        H928   1.111       .  S
C923        H929   1.109   1_554  S
C926        H930   1.110       .  S
C926        H931   1.109       .  S
C926        H932   1.111       .  S
C933        C934   1.404       .  A
C933        C938   1.408       .  A
C933        H940   1.084       .  S
C934        C935   1.418       .  A
C935        C936   1.401       .  A
C935        C942   1.510       .  S
C936        C937   1.405       .  A
C936        H941   1.084       .  S
C937        C938   1.418       .  A
C938        C939   1.507       .  S
C939        H943   1.111       .  S
C939        H944   1.109       .  S
C939        H945   1.111       .  S
C942        H946   1.109       .  S
C942        H947   1.111       .  S
C942        H948   1.111       .  S
C949        C950   1.405       .  A
C949        C954   1.408       .  A
C949        H956   1.083       .  S
C950        C951   1.421       .  A
C951        C952   1.406       .  A
C951        C958   1.509       .  S
C952        C953   1.405       .  A
C952        H957   1.083       .  S
C953        C954   1.421       .  A
C954        C955   1.508       .  S
C955        H959   1.111       .  S
C955        H960   1.110       .  S
C955        H961   1.110       .  S
C958        H962   1.110       .  S
C958        H963   1.110       .  S
C958        H964   1.111       .  S
C965        C966   1.407       .  A
C965        C970   1.406       .  A
C965        H972   1.084       .  S
C966        C967   1.413       .  A
C967        C968   1.403       .  A
C967        C974   1.507       .  S
C968        C969   1.405       .  A
C968        H973   1.084       .  S
C969        C970   1.416       .  A
C970        C971   1.508       .  S
C971        H975   1.111       .  S
C971        H976   1.110       .  S
C971        H977   1.110       .  S
C974        H978   1.110       .  S
C974        H979   1.110       .  S
C974        H980   1.111       .  S
C981        C982   1.406       .  A
C981        C986   1.400       .  A
C981        H988   1.083       .  S
C982        C983   1.420       .  A
C983        C984   1.410       .  A
C983        C990   1.507       .  S
C984        C985   1.406       .  A
C984        H989   1.084       .  S
C985        C986   1.416       .  A
C986        C987   1.510       .  S
C987        H991   1.111       .  S
C987        H992   1.109       .  S
C987        H993   1.111       .  S
C990        H994   1.110       .  S
C990        H995   1.110       .  S
C990        H996   1.111       .  S
C997        C998   1.403       .  A
C997       C1002   1.404       .  A
C997       H1004   1.084       .  S
C998        C999   1.412       .  A
C999       C1000   1.406       .  A
C999       C1006   1.507       .  S
C1000      C1001   1.408       .  A
C1000      H1005   1.084       .  S
C1001      C1002   1.417       .  A
C1002      C1003   1.508       .  S
C1003      H1007   1.111       .  S
C1003      H1008   1.110       .  S
C1003      H1009   1.110       .  S
C1006      H1010   1.111       .  S
C1006      H1011   1.110       .  S
C1006      H1012   1.111       .  S
C1013      C1014   1.408       .  A
C1013      C1018   1.403       .  A
C1013      H1020   1.083       .  S
C1014      C1015   1.419       .  A
C1015      C1016   1.411       .  A
C1015      C1022   1.506       .  S
C1016      C1017   1.405       .  A
C1016      H1021   1.084       .  S
C1017      C1018   1.417       .  A
C1018      C1019   1.510       .  S
C1019      H1023   1.111       .  S
C1019      H1024   1.110       .  S
C1019      H1025   1.110       .  S
C1022      H1026   1.110       .  S
C1022      H1027   1.110       .  S
C1022      H1028   1.111       .  S
C1029      C1030   1.404       .  A
C1029      C1034   1.405       .  A
C1029      H1036   1.084       .  S
C1030      C1031   1.418       .  A
C1031      C1032   1.406       .  A
C1031      C1038   1.508       .  S
C1032      C1033   1.405       .  A
C1032      H1037   1.084       .  S
C1033      C1034   1.419       .  A
C1034      C1035   1.508       .  S
C1035      H1039   1.111       .  S
C1035      H1040   1.109       .  S
C1035      H1041   1.110       .  S
C1038      H1042   1.111       .  S
C1038      H1043   1.109       .  S
C1038      H1044   1.111       .  S
C1045      C1046   1.401   1_655  A
C1045      C1050   1.405   1_556  A
C1045      H1052   1.085       .  S
C1046      C1047   1.418   1_556  A
C1047      C1048   1.405   1_455  A
C1047      C1054   1.509       .  S
C1048      C1049   1.405       .  A
C1048      H1053   1.084       .  S
C1049      C1050   1.421       .  A
C1050      C1051   1.508       .  S
C1051      H1055   1.111   1_554  S
C1051      H1056   1.110       .  S
C1051      H1057   1.110       .  S
C1054      H1058   1.110       .  S
C1054      H1059   1.109   1_554  S
C1054      H1060   1.111       .  S
C1061      C1062   1.406       .  A
C1061      C1066   1.406   1_556  A
C1061      H1068   1.084       .  S
C1062      C1063   1.417       .  A
C1063      C1064   1.404       .  A
C1063      C1070   1.509       .  S
C1064      C1065   1.405   1_556  A
C1064      H1069   1.084       .  S
C1065      C1066   1.414       .  A
C1066      C1067   1.506       .  S
C1067      H1071   1.111       .  S
C1067      H1072   1.110       .  S
C1067      H1073   1.110       .  S
C1070      H1074   1.110       .  S
C1070      H1075   1.110       .  S
C1070      H1076   1.111       .  S
C1077      C1078   1.406       .  A
C1077      C1082   1.404       .  A
C1077      H1084   1.084       .  S
C1078      C1079   1.422       .  A
C1079      C1080   1.406       .  A
C1079      C1086   1.508       .  S
C1080      C1081   1.400       .  A
C1080      H1085   1.085       .  S
C1081      C1082   1.415       .  A
C1082      C1083   1.509       .  S
C1083      H1087   1.111       .  S
C1083      H1088   1.109       .  S
C1083      H1089   1.110       .  S
C1086      H1090   1.110       .  S
C1086      H1091   1.110       .  S
C1086      H1092   1.111       .  S
C1093      C1094   1.407       .  A
C1093      C1098   1.405       .  A
C1093      H1100   1.083       .  S
C1094      C1095   1.423       .  A
C1095      C1096   1.405       .  A
C1095      C1102   1.509       .  S
C1096      C1097   1.399       .  A
C1096      H1101   1.084       .  S
C1097      C1098   1.413       .  A
C1098      C1099   1.508       .  S
C1099      H1103   1.111       .  S
C1099      H1104   1.110       .  S
C1099      H1105   1.109       .  S
C1102      H1106   1.110       .  S
C1102      H1107   1.110       .  S
C1102      H1108   1.111       .  S
C1109      C1110   1.402       .  A
C1109      C1114   1.405       .  A
C1109      H1116   1.083       .  S
C1110      C1111   1.419       .  A
C1111      C1112   1.408       .  A
C1111      C1118   1.508       .  S
C1112      C1113   1.407       .  A
C1112      H1117   1.083       .  S
C1113      C1114   1.422       .  A
C1114      C1115   1.509       .  S
C1115      H1119   1.111       .  S
C1115      H1120   1.110       .  S
C1115      H1121   1.110       .  S
C1118      H1122   1.110       .  S
C1118      H1123   1.110       .  S
C1118      H1124   1.111       .  S
C1125      C1126   1.407       .  A
C1125      C1130   1.407       .  A
C1125      H1132   1.084       .  S
C1126      C1127   1.414       .  A
C1127      C1128   1.399       .  A
C1127      C1134   1.508       .  S
C1128      C1129   1.404       .  A
C1128      H1133   1.084       .  S
C1129      C1130   1.416       .  A
C1130      C1131   1.507       .  S
C1131      H1135   1.111       .  S
C1131      H1136   1.110       .  S
C1131      H1137   1.110       .  S
C1134      H1138   1.110       .  S
C1134      H1139   1.110       .  S
C1134      H1140   1.111       .  S
C1141      C1142   1.408       .  A
C1141      C1146   1.408       .  A
C1141      H1148   1.084       .  S
C1142      C1143   1.418       .  A
C1143      C1144   1.405       .  A
C1143      C1150   1.508       .  S
C1144      C1145   1.404       .  A
C1144      H1149   1.084       .  S
C1145      C1146   1.414       .  A
C1146      C1147   1.507       .  S
C1147      H1151   1.111       .  S
C1147      H1152   1.110       .  S
C1147      H1153   1.110       .  S
C1150      H1154   1.110       .  S
C1150      H1155   1.110       .  S
C1150      H1156   1.111       .  S
C1157      C1158   1.405       .  A
C1157      C1162   1.403   1_655  A
C1157      H1164   1.084       .  S
C1158      C1159   1.416   1_655  A
C1159      C1160   1.406       .  A
C1159      C1166   1.507       .  S
C1160      C1161   1.406       .  A
C1160      H1165   1.084       .  S
C1161      C1162   1.415       .  A
C1162      C1163   1.508       .  S
C1163      H1167   1.111       .  S
C1163      H1168   1.111       .  S
C1163      H1169   1.110       .  S
C1166      H1170   1.111       .  S
C1166      H1171   1.110   1_455  S
C1166      H1172   1.111       .  S
C1173      C1174   1.406       .  A
C1173      C1178   1.406   1_565  A
C1173      H1180   1.084       .  S
C1174      C1175   1.415   1_565  A
C1175      C1176   1.404       .  A
C1175      C1182   1.507       .  S
C1176      C1177   1.406       .  A
C1176      H1181   1.084       .  S
C1177      C1178   1.417       .  A
C1178      C1179   1.508       .  S
C1179      H1183   1.111   1_545  S
C1179      H1184   1.110       .  S
C1179      H1185   1.110       .  S
C1182      H1186   1.110   1_545  S
C1182      H1187   1.110       .  S
C1182      H1188   1.111       .  S
C1189      C1190   1.409   1_455  A
C1189      C1194   1.399       .  A
C1189      H1196   1.083       .  S
C1190      C1191   1.421       .  A
C1191      C1192   1.409   1_655  A
C1191      C1198   1.506       .  S
C1192      C1193   1.401       .  A
C1192      H1197   1.084       .  S
C1193      C1194   1.407       .  A
C1194      C1195   1.509       .  S
C1195      H1199   1.111       .  S
C1195      H1200   1.110       .  S
C1195      H1201   1.110       .  S
C1198      H1202   1.110       .  S
C1198      H1203   1.110       .  S
C1198      H1204   1.111       .  S
C1205      C1206   1.407       .  A
C1205      C1210   1.405       .  A
C1205      H1212   1.083       .  S
C1206      C1207   1.417       .  A
C1207      C1208   1.405       .  A
C1207      C1214   1.508       .  S
C1208      C1209   1.408       .  A
C1208      H1213   1.083       .  S
C1209      C1210   1.418       .  A
C1210      C1211   1.508       .  S
C1211      H1215   1.111       .  S
C1211      H1216   1.110       .  S
C1211      H1217   1.110       .  S
C1214      H1218   1.110       .  S
C1214      H1219   1.110       .  S
C1214      H1220   1.111       .  S
C1221      C1222   1.405       .  A
C1221      C1226   1.406       .  A
C1221      H1228   1.085       .  S
C1222      C1223   1.413       .  A
C1223      C1224   1.404       .  A
C1223      C1230   1.508       .  S
C1224      C1225   1.408       .  A
C1224      H1229   1.085       .  S
C1225      C1226   1.417       .  A
C1226      C1227   1.507       .  S
C1227      H1231   1.111       .  S
C1227      H1232   1.110       .  S
C1227      H1233   1.110       .  S
C1230      H1234   1.110       .  S
C1230      H1235   1.110       .  S
C1230      H1236   1.111       .  S
C1237      C1238   1.408       .  A
C1237      C1242   1.408       .  A
C1237      H1244   1.084       .  S
C1238      C1239   1.417       .  A
C1239      C1240   1.403       .  A
C1239      C1246   1.508       .  S
C1240      C1241   1.404       .  A
C1240      H1245   1.084       .  S
C1241      C1242   1.414       .  A
C1242      C1243   1.507       .  S
C1243      H1247   1.111       .  S
C1243      H1248   1.110       .  S
C1243      H1249   1.110       .  S
C1246      H1250   1.110       .  S
C1246      H1251   1.110       .  S
C1246      H1252   1.111       .  S
C1253      C1254   1.406       .  A
C1253      C1258   1.409       .  A
C1253      H1260   1.084       .  S
C1254      C1255   1.411       .  A
C1255      C1256   1.402       .  A
C1255      C1262   1.507       .  S
C1256      C1257   1.408       .  A
C1256      H1261   1.084       .  S
C1257      C1258   1.419       .  A
C1258      C1259   1.507       .  S
C1259      H1263   1.111       .  S
C1259      H1264   1.110       .  S
C1259      H1265   1.110       .  S
C1262      H1266   1.109       .  S
C1262      H1267   1.111       .  S
C1262      H1268   1.111       .  S
C1269      C1270   1.406       .  A
C1269      C1274   1.405       .  A
C1269      H1276   1.084       .  S
C1270      C1271   1.416       .  A
C1271      C1272   1.405       .  A
C1271      C1278   1.508       .  S
C1272      C1273   1.406       .  A
C1272      H1277   1.084       .  S
C1273      C1274   1.414       .  A
C1274      C1275   1.507       .  S
C1275      H1279   1.111       .  S
C1275      H1280   1.110       .  S
C1275      H1281   1.110       .  S
C1278      H1282   1.111       .  S
C1278      H1283   1.110       .  S
C1278      H1284   1.111       .  S
C1285      C1286   1.404       .  A
C1285      C1290   1.412       .  A
C1285      H1292   1.084       .  S
C1286      C1287   1.415       .  A
C1287      C1288   1.402       .  A
C1287      C1294   1.510       .  S
C1288      C1289   1.407       .  A
C1288      H1293   1.083       .  S
C1289      C1290   1.421       .  A
C1290      C1291   1.507       .  S
C1291      H1295   1.111       .  S
C1291      H1296   1.110       .  S
C1291      H1297   1.110       .  S
C1294      H1298   1.109       .  S
C1294      H1299   1.111       .  S
C1294      H1300   1.111       .  S
C1301      C1302   1.406       .  A
C1301      C1306   1.408   1_545  A
C1301      H1308   1.083       .  S
C1302      C1303   1.421       .  A
C1303      C1304   1.407   1_545  A
C1303      C1310   1.508       .  S
C1304      C1305   1.405       .  A
C1304      H1309   1.083       .  S
C1305      C1306   1.422       .  A
C1306      C1307   1.509       .  S
C1307      H1311   1.111       .  S
C1307      H1312   1.110       .  S
C1307      H1313   1.110       .  S
C1310      H1314   1.110       .  S
C1310      H1315   1.110       .  S
C1310      H1316   1.111       .  S
C1317      C1318   1.403   1_655  A
C1317      C1322   1.409       .  A
C1317      H1324   1.084       .  S
C1318      C1319   1.417       .  A
C1319      C1320   1.406   1_455  A
C1319      C1326   1.509       .  S
C1320      C1321   1.405       .  A
C1320      H1325   1.083       .  S
C1321      C1322   1.423       .  A
C1322      C1323   1.508       .  S
C1323      H1327   1.111       .  S
C1323      H1328   1.109       .  S
C1323      H1329   1.110       .  S
C1326      H1330   1.109       .  S
C1326      H1331   1.111       .  S
C1326      H1332   1.111       .  S
C1333      C1334   1.400   1_565  A
C1333      C1338   1.404       .  A
C1333      H1340   1.084       .  S
C1334      C1335   1.415       .  A
C1335      C1336   1.405   1_545  A
C1335      C1342   1.509       .  S
C1336      C1337   1.407       .  A
C1336      H1341   1.084       .  S
C1337      C1338   1.421       .  A
C1338      C1339   1.508       .  S
C1339      H1343   1.111       .  S
C1339      H1344   1.110       .  S
C1339      H1345   1.109       .  S
C1342      H1346   1.111       .  S
C1342      H1347   1.109       .  S
C1342      H1348   1.111       .  S
C1349      C1350   1.403       .  A
C1349      C1354   1.407       .  A
C1349      H1356   1.084       .  S
C1350      C1351   1.418       .  A
C1351      C1352   1.404       .  A
C1351      C1358   1.508       .  S
C1352      C1353   1.404       .  A
C1352      H1357   1.084       .  S
C1353      C1354   1.421       .  A
C1354      C1355   1.509       .  S
C1355      H1359   1.111       .  S
C1355      H1360   1.111       .  S
C1355      H1361   1.109       .  S
C1358      H1362   1.110       .  S
C1358      H1363   1.108       .  S
C1358      H1364   1.111       .  S
C1365      C1366   1.406       .  A
C1365      C1370   1.408       .  A
C1365      H1372   1.084       .  S
C1366      C1367   1.414       .  A
C1367      C1368   1.402       .  A
C1367      C1374   1.508       .  S
C1368      C1369   1.407       .  A
C1368      H1373   1.084       .  S
C1369      C1370   1.417       .  A
C1370      C1371   1.507       .  S
C1371      H1375   1.111       .  S
C1371      H1376   1.110       .  S
C1371      H1377   1.110       .  S
C1374      H1378   1.109       .  S
C1374      H1379   1.110       .  S
C1374      H1380   1.111       .  S
C1381      C1382   1.401       .  A
C1381      C1386   1.405       .  A
C1381      H1388   1.084       .  S
C1382      C1383   1.413       .  A
C1383      C1384   1.408       .  A
C1383      C1390   1.507       .  S
C1384      C1385   1.408       .  A
C1384      H1389   1.084       .  S
C1385      C1386   1.417       .  A
C1386      C1387   1.508       .  S
C1387      H1391   1.111       .  S
C1387      H1392   1.110       .  S
C1387      H1393   1.111       .  S
C1390      H1394   1.110       .  S
C1390      H1395   1.111       .  S
C1390      H1396   1.111       .  S
C1397      C1398   1.409       .  A
C1397      C1402   1.407       .  A
C1397      H1404   1.083       .  S
C1398      C1399   1.417       .  A
C1399      C1400   1.405       .  A
C1399      C1406   1.508       .  S
C1400      C1401   1.408       .  A
C1400      H1405   1.083       .  S
C1401      C1402   1.418       .  A
C1402      C1403   1.508       .  S
C1403      H1407   1.111       .  S
C1403      H1408   1.110       .  S
C1403      H1409   1.110       .  S
C1406      H1410   1.110       .  S
C1406      H1411   1.110       .  S
C1406      H1412   1.111       .  S
C1413      C1414   1.403       .  A
C1413      C1418   1.407       .  A
C1413      H1420   1.084       .  S
C1414      C1415   1.418       .  A
C1415      C1416   1.405       .  A
C1415      C1422   1.509       .  S
C1416      C1417   1.403       .  A
C1416      H1421   1.084       .  S
C1417      C1418   1.419       .  A
C1418      C1419   1.508       .  S
C1419      H1423   1.111       .  S
C1419      H1424   1.111       .  S
C1419      H1425   1.109       .  S
C1422      H1426   1.111       .  S
C1422      H1427   1.108       .  S
C1422      H1428   1.111       .  S
C1429      C1430   1.406       .  A
C1429      C1434   1.404       .  A
C1429      H1436   1.084       .  S
C1430      C1431   1.422       .  A
C1431      C1432   1.405       .  A
C1431      C1438   1.508       .  S
C1432      C1433   1.401       .  A
C1432      H1437   1.085       .  S
C1433      C1434   1.415       .  A
C1434      C1435   1.509       .  S
C1435      H1439   1.111       .  S
C1435      H1440   1.109       .  S
C1435      H1441   1.110       .  S
C1438      H1442   1.110       .  S
C1438      H1443   1.110       .  S
C1438      H1444   1.111       .  S
C1445      C1446   1.404   1_556  A
C1445      C1450   1.405   1_655  A
C1445      H1452   1.085       .  S
C1446      C1447   1.415   1_655  A
C1447      C1448   1.408   1_554  A
C1447      C1454   1.507       .  S
C1448      C1449   1.408       .  A
C1448      H1453   1.084       .  S
C1449      C1450   1.418       .  A
C1450      C1451   1.508       .  S
C1451      H1455   1.111       .  S
C1451      H1456   1.110       .  S
C1451      H1457   1.110       .  S
C1454      H1458   1.110   1_455  S
C1454      H1459   1.110       .  S
C1454      H1460   1.111       .  S
C1461      C1462   1.402   1_554  A
C1461      C1466   1.407       .  A
C1461      H1468   1.084       .  S
C1462      C1463   1.411       .  A
C1463      C1464   1.404   1_556  A
C1463      C1470   1.508       .  S
C1464      C1465   1.410       .  A
C1464      H1469   1.083       .  S
C1465      C1466   1.420       .  A
C1466      C1467   1.507       .  S
C1467      H1471   1.111       .  S
C1467      H1472   1.110       .  S
C1467      H1473   1.110       .  S
C1470      H1474   1.111       .  S
C1470      H1475   1.110       .  S
C1470      H1476   1.111       .  S
C1477      C1478   1.405   1_455  A
C1477      C1482   1.406       .  A
C1477      H1484   1.085       .  S
C1478      C1479   1.414       .  A
C1479      C1480   1.406       .  A
C1479      C1486   1.507       .  S
C1480      C1481   1.405   1_655  A
C1480      H1485   1.085       .  S
C1481      C1482   1.415       .  A
C1482      C1483   1.507       .  S
C1483      H1487   1.111       .  S
C1483      H1488   1.110       .  S
C1483      H1489   1.110       .  S
C1486      H1490   1.110       .  S
C1486      H1491   1.110       .  S
C1486      H1492   1.111       .  S
C1493      C1494   1.405       .  A
C1493      C1498   1.409       .  A
C1493      H1500   1.083       .  S
C1494      C1495   1.421       .  A
C1495      C1496   1.404       .  A
C1495      C1502   1.509       .  S
C1496      C1497   1.403       .  A
C1496      H1501   1.083       .  S
C1497      C1498   1.422       .  A
C1498      C1499   1.508       .  S
C1499      H1503   1.111       .  S
C1499      H1504   1.110       .  S
C1499      H1505   1.110       .  S
C1502      H1506   1.110       .  S
C1502      H1507   1.110       .  S
C1502      H1508   1.111       .  S
C1509      C1510   1.404       .  A
C1509      C1514   1.403       .  A
C1509      H1516   1.083       .  S
C1510      C1511   1.418       .  A
C1511      C1512   1.403       .  A
C1511      C1518   1.509       .  S
C1512      C1513   1.401       .  A
C1512      H1517   1.084       .  S
C1513      C1514   1.415       .  A
C1514      C1515   1.508       .  S
C1515      H1519   1.111       .  S
C1515      H1520   1.110       .  S
C1515      H1521   1.109       .  S
C1518      H1522   1.110       .  S
C1518      H1523   1.109       .  S
C1518      H1524   1.111       .  S
C1525      C1526   1.399       .  A
C1525      C1530   1.404       .  A
C1525      H1532   1.084       .  S
C1526      C1527   1.415       .  A
C1527      C1528   1.407       .  A
C1527      C1534   1.508       .  S
C1528      C1529   1.407       .  A
C1528      H1533   1.084       .  S
C1529      C1530   1.422       .  A
C1530      C1531   1.509       .  S
C1531      H1535   1.111       .  S
C1531      H1536   1.109       .  S
C1531      H1537   1.110       .  S
C1534      H1538   1.108       .  S
C1534      H1539   1.111       .  S
C1534      H1540   1.111       .  S
C1541      C1542   1.402       .  A
C1541      C1546   1.410       .  A
C1541      H1548   1.085       .  S
C1542      C1543   1.414       .  A
C1543      C1544   1.403       .  A
C1543      C1550   1.510       .  S
C1544      C1545   1.408       .  A
C1544      H1549   1.084       .  S
C1545      C1546   1.422       .  A
C1546      C1547   1.506       .  S
C1547      H1551   1.111       .  S
C1547      H1552   1.110       .  S
C1547      H1553   1.110       .  S
C1550      H1554   1.111       .  S
C1550      H1555   1.109       .  S
C1550      H1556   1.111       .  S
C1557      C1558   1.406       .  A
C1557      C1562   1.404       .  A
C1557      H1564   1.083       .  S
C1558      C1559   1.424       .  A
C1559      C1560   1.404       .  A
C1559      C1566   1.509       .  S
C1560      C1561   1.399       .  A
C1560      H1565   1.084       .  S
C1561      C1562   1.414       .  A
C1562      C1563   1.508       .  S
C1563      H1567   1.111       .  S
C1563      H1568   1.109       .  S
C1563      H1569   1.110       .  S
C1566      H1570   1.110       .  S
C1566      H1571   1.110       .  S
C1566      H1572   1.111       .  S
C1573      C1574   1.409       .  A
C1573      C1578   1.404       .  A
C1573      H1580   1.084       .  S
C1574      C1575   1.419       .  A
C1575      C1576   1.406       .  A
C1575      C1582   1.507       .  S
C1576      C1577   1.403       .  A
C1576      H1581   1.085       .  S
C1577      C1578   1.412       .  A
C1578      C1579   1.508       .  S
C1579      H1583   1.111       .  S
C1579      H1584   1.111       .  S
C1579      H1585   1.110       .  S
C1582      H1586   1.110       .  S
C1582      H1587   1.110       .  S
C1582      H1588   1.111       .  S
C1589      C1590   1.408       .  A
C1589      C1594   1.403       .  A
C1589      H1596   1.083       .  S
C1590      C1591   1.421       .  A
C1591      C1592   1.412       .  A
C1591      C1598   1.506       .  S
C1592      C1593   1.404       .  A
C1592      H1597   1.084       .  S
C1593      C1594   1.415       .  A
C1594      C1595   1.510       .  S
C1595      H1599   1.111       .  S
C1595      H1600   1.109       .  S
C1595      H1601   1.110       .  S
C1598      H1602   1.110       .  S
C1598      H1603   1.110       .  S
C1598      H1604   1.111       .  S
C1605      C1606   1.405       .  A
C1605      C1610   1.405       .  A
C1605      H1612   1.083       .  S
C1606      C1607   1.421   1_554  A
C1607      C1608   1.406       .  A
C1607      C1614   1.509       .  S
C1608      C1609   1.405       .  A
C1608      H1613   1.083       .  S
C1609      C1610   1.420   1_556  A
C1610      C1611   1.509       .  S
C1611      H1615   1.111       .  S
C1611      H1616   1.111       .  S
C1611      H1617   1.110       .  S
C1614      H1618   1.110       .  S
C1614      H1619   1.110       .  S
C1614      H1620   1.111       .  S
