geometry optimzed in LAMMPS
_audit_creation_date              2020-12-01 
_audit_creation_method            'lammps2cif' 
_symmetry_space_group_name_H-M    'P1' 
_symmetry_Int_Tables_number       1 
_symmetry_cell_setting            triclinic 
loop_ 
_symmetry_equiv_pos_as_xyz 
  x,y,z 
_cell_length_a                    51.53307568 
_cell_length_b                    51.831840108660344 
_cell_length_c                    72.50124076727967 
_cell_angle_alpha                 90.27932857779258 
_cell_angle_beta                  89.79804576803608 
_cell_angle_gamma                 120.01820096003986 
loop_ 
_atom_site_label 
_atom_site_type_symbol 
_atom_site_fract_x 
_atom_site_fract_y 
_atom_site_fract_z 
_atom_site_charge 
O1          O  0.32949217  0.23509900  0.08960470    -0.72000
O2          O  0.40146267  0.23449970  0.07887027    -0.72300
O3          O  0.37017773  0.22828535  0.10920139    -0.72100
O4          O  0.36117213  0.24105576  0.05904335    -0.72100
O5          O  0.38959002  0.28886058  0.06264685    -0.72100
O6          O  0.39276896  0.27600463  0.11430289    -0.72100
O7          O  0.42701028  0.28189461  0.08497754    -0.72000
O8          O  0.35489431  0.28333017  0.09192419    -0.72200
V9          V  0.36598476  0.23568593  0.08424040     1.35200
V10         V  0.39053054  0.28166118  0.08841894     1.35200
C11         C  0.32983162  0.25948433  0.09196805     0.77200
C12         C  0.42655854  0.25797624  0.08083239     0.77300
C13         C  0.38342935  0.24984537  0.12026122     0.77100
C14         C  0.37432486  0.26683933  0.05211278     0.77100
O15         O  0.40356741  0.24046045  0.91016686    -0.72000
O16         O  0.32863309  0.23560336  0.92001030    -0.72300
O17         O  0.35275611  0.22393081  0.89095917    -0.72100
O18         O  0.37802018  0.25108427  0.93930699    -0.72100
O19         O  0.39572499  0.29712461  0.93099391    -0.72100
O20         O  0.37192168  0.26953319  0.88138091    -0.72100
O21         O  0.34702987  0.28113370  0.91048817    -0.72000
O22         O  0.42184875  0.28649731  0.90176751    -0.72200
V23         V  0.36630774  0.23871189  0.91488757     1.35200
V24         V  0.38394444  0.28271631  0.90624937     1.35200
C25         C  0.42572719  0.26466659  0.90465926     0.77200
C26         C  0.32522761  0.25775928  0.91698378     0.77300
C27         C  0.35687539  0.24176885  0.87805460     0.77100
C28         C  0.38920793  0.27814254  0.94370530     0.77100
O29         O  0.19103670  0.31178200  0.08772668    -0.72000
O30         O  0.11713070  0.31057386  0.08327037    -0.72300
O31         O  0.15790394  0.32653549  0.10992535    -0.72100
O32         O  0.14916083  0.29618357  0.06122880    -0.72100
O33         O  0.12626166  0.25078935  0.07156855    -0.72100
O34         O  0.13465778  0.28142904  0.12066039    -0.72100
O35         O  0.09360964  0.26521525  0.09359396    -0.72000
O36         O  0.16764038  0.26663192  0.09835640    -0.72200
V37         V  0.15354289  0.31037424  0.08579957     1.35200
V38         V  0.13109324  0.26691045  0.09592734     1.35200
C39         C  0.19193579  0.28919010  0.09342251     0.77200
C40         C  0.09272458  0.28745951  0.08727237     0.77300
C41         C  0.14674804  0.30924181  0.12354048     0.77100
C42         C  0.13525380  0.26848631  0.05801582     0.77100
O43         O  0.10136951  0.28888757  0.91265815    -0.72000
O44         O  0.17779094  0.29803380  0.92411287    -0.72300
O45         O  0.15160680  0.30228458  0.89367939    -0.72100
O46         O  0.12816191  0.28578427  0.94335653    -0.72100
O47         O  0.11320763  0.23884677  0.93929696    -0.72100
O48         O  0.13153917  0.25504471  0.88763430    -0.72100
O49         O  0.16014487  0.25127604  0.91748072    -0.72000
O50         O  0.08350791  0.24126917  0.90944103    -0.72200
V51         V  0.13931639  0.29279541  0.91836474     1.35200
V52         V  0.12235747  0.24745817  0.91351287     1.35200
C53         C  0.07916352  0.26314614  0.90968576     0.77200
C54         C  0.18198645  0.27607075  0.92222617     0.77300
C55         C  0.14606542  0.28191041  0.88216168     0.77100
C56         C  0.11736178  0.26000753  0.95002485     0.77100
O57         O  0.27248285  0.10412543  0.75824507    -0.72000
O58         O  0.28051232  0.17982416  0.74736225    -0.72300
O59         O  0.28705546  0.15446807  0.77730093    -0.72100
O60         O  0.26705602  0.13019652  0.72808460    -0.72100
O61         O  0.21984051  0.11352393  0.73366600    -0.72100
O62         O  0.24012417  0.13628027  0.78442234    -0.72100
O63         O  0.23349036  0.16198762  0.75408416    -0.72000
O64         O  0.22525030  0.08656981  0.76404025    -0.72200
V65         V  0.27578633  0.14171138  0.75288612     1.35200
V66         V  0.23052921  0.12481020  0.75898791     1.35200
C67         C  0.24716707  0.08215940  0.76251961     0.77200
C68         C  0.25828316  0.18379962  0.74918370     0.77300
C69         C  0.26752794  0.15068670  0.78911946     0.77100
C70         C  0.24049530  0.11816589  0.72230674     0.77100
O71         O  0.30037609  0.19746522  0.58908565    -0.72000
O72         O  0.29298800  0.12069333  0.58967366    -0.72300
O73         O  0.31408813  0.16546948  0.56568412    -0.72100
O74         O  0.27982205  0.15199865  0.61328476    -0.72100
O75         O  0.23528802  0.13422865  0.60157903    -0.72100
O76         O  0.26978688  0.14574799  0.55342459    -0.72100
O77         O  0.24799975  0.10176708  0.57848028    -0.72000
O78         O  0.25627291  0.17816109  0.57657972    -0.72200
V79         V  0.29595456  0.15868623  0.58921128     1.35200
V80         V  0.25323890  0.14044111  0.57769037     1.35200
C81         C  0.27935610  0.20075867  0.58272446     0.77200
C82         C  0.26891901  0.09813491  0.58440772     0.77300
C83         C  0.29787688  0.15704491  0.55144587     0.77100
C84         C  0.25187451  0.14010645  0.61561494     0.77100
O85         O  0.22303789  0.40560404  0.75657180    -0.72000
O86         O  0.21872828  0.33136216  0.74491703    -0.72300
O87         O  0.20784451  0.35444481  0.77503407    -0.72100
O88         O  0.23294308  0.38175996  0.72644137    -0.72100
O89         O  0.27924452  0.39678742  0.73366824    -0.72100
O90         O  0.25427663  0.37623555  0.78392439    -0.72100
O91         O  0.26407625  0.34931296  0.75518925    -0.72000
O92         O  0.27042918  0.42447493  0.76237725    -0.72200
V93         V  0.22149503  0.36865410  0.75090951     1.35200
V94         V  0.26611783  0.38638106  0.75870460     1.35200
C95         C  0.24813697  0.42816961  0.76058429     0.77200
C96         C  0.24073755  0.32765860  0.74846839     0.77300
C97         C  0.22661178  0.36058750  0.78781703     0.77100
C98         C  0.26004749  0.39338758  0.72159744     0.77100
O99         O  0.23833681  0.34692917  0.58289647    -0.72000
O100        O  0.24786872  0.42456878  0.58540648    -0.72300
O101        O  0.23116020  0.38309491  0.55934860    -0.72100
O102        O  0.25406065  0.38889882  0.60908412    -0.72100
O103        O  0.30079333  0.40729555  0.60135176    -0.72100
O104        O  0.27753663  0.40266937  0.55055817    -0.72100
O105        O  0.29458235  0.44343442  0.57754171    -0.72000
O106        O  0.28483689  0.36654951  0.57434180    -0.72200
V107        V  0.24378223  0.38610252  0.58400145     1.35200
V108        V  0.28853963  0.40450857  0.57605064     1.35200
C109        C  0.26038822  0.34372119  0.57853670     0.77200
C110        C  0.27302449  0.44723752  0.58189478     0.77300
C111        C  0.25024566  0.39319322  0.54653506     0.77100
C112        C  0.28102292  0.39958367  0.61386029     0.77100
O113        O  0.19485770  0.44170666  0.24634411    -0.72000
O114        O  0.12651862  0.36654191  0.25904367    -0.72300
O115        O  0.15903758  0.38958708  0.22841580    -0.72100
O116        O  0.16298977  0.41789527  0.27695098    -0.72100
O117        O  0.13100258  0.43213420  0.27027250    -0.72100
O118        O  0.13215200  0.40895938  0.21991180    -0.72100
O119        O  0.09776573  0.38333694  0.24974067    -0.72000
O120        O  0.16494363  0.45880329  0.24055428    -0.72200
V121        V  0.16031473  0.40426623  0.25250168     1.35200
V122        V  0.13205660  0.42049884  0.24518570     1.35200
C123        C  0.19132540  0.46355742  0.24226364     0.77200
C124        C  0.10032863  0.36224354  0.25629557     0.77300
C125        C  0.14494358  0.39411234  0.21584828     0.77100
C126        C  0.14763428  0.42942277  0.28204509     0.77100
O127        O  0.13207436  0.36953000  0.41915231    -0.72000
O128        O  0.20738178  0.44045119  0.41438330    -0.72300
O129        O  0.18081748  0.39971224  0.44072894    -0.72100
O130        O  0.15960768  0.41061037  0.39261947    -0.72100
O131        O  0.14029550  0.43639880  0.40362066    -0.72100
O132        O  0.16104389  0.42469255  0.45224410    -0.72100
O133        O  0.18792697  0.46581332  0.42579964    -0.72000
O134        O  0.11304400  0.39569920  0.42993337    -0.72200
V135        V  0.16949739  0.40548774  0.41694923     1.35200
V136        V  0.15094674  0.43011683  0.42774067     1.35200
C137        C  0.10957717  0.37084519  0.42495307     0.77200
C138        C  0.21035554  0.46522034  0.41930187     0.77300
C139        C  0.17516633  0.41075604  0.45467357     0.77100
C140        C  0.14676512  0.42556031  0.38985610     0.77100
O141        O  0.34236983  0.14132850  0.24773083    -0.72000
O142        O  0.41150222  0.21665219  0.25873082    -0.72300
O143        O  0.37999625  0.19055202  0.22840734    -0.72100
O144        O  0.37362718  0.16826600  0.27823662    -0.72100
O145        O  0.40355931  0.15067473  0.27378673    -0.72100
O146        O  0.40758515  0.17069521  0.22258622    -0.72100
O147        O  0.43978466  0.19755777  0.25293442    -0.72000
O148        O  0.37141104  0.12272472  0.24333926    -0.72200
V149        V  0.37738394  0.17875841  0.25317319     1.35200
V150        V  0.40494289  0.16066544  0.24822633     1.35200
C151        C  0.34524797  0.11896636  0.24392525     0.77200
C152        C  0.43751538  0.21986909  0.25745244     0.77300
C153        C  0.39515290  0.18507860  0.21701519     0.77100
C154        C  0.38791491  0.15650627  0.28473422     0.77100
O155        O  0.43491717  0.21938081  0.42593644    -0.72000
O156        O  0.35728948  0.15173278  0.42112920    -0.72300
O157        O  0.38807880  0.18783732  0.44869635    -0.72100
O158        O  0.40279933  0.18276566  0.39828654    -0.72100
O159        O  0.42250653  0.15525144  0.40444553    -0.72100
O160        O  0.40512709  0.15830063  0.45559166    -0.72100
O161        O  0.37612591  0.12329669  0.42678279    -0.72000
O162        O  0.45273398  0.19067277  0.43325050    -0.72200
V163        V  0.39638294  0.18506610  0.42367230     1.35200
V164        V  0.41393920  0.15755578  0.42995102     1.35200
C165        C  0.45711500  0.21650278  0.43025951     0.77200
C166        C  0.35370251  0.12591672  0.42292305     0.77300
C167        C  0.39216336  0.17252933  0.46056626     0.77100
C168        C  0.41378923  0.16720929  0.39263303     0.77100
C169        C  0.38659552  0.15126299  0.30480910    -0.05500
C170        C  0.36186358  0.14864949  0.31465989    -0.05400
C171        C  0.36202513  0.14953175  0.33382005    -0.23600
C172        C  0.38703389  0.15322920  0.34354739     0.18600
C173        C  0.41149313  0.15423148  0.33400569     0.15800
C174        C  0.41103944  0.15299392  0.31455220    -0.18600
C175        C  0.43629744  0.15766148  0.34414388    -0.20400
C176        C  0.43714637  0.16104063  0.36343019    -0.13000
C177        C  0.41341711  0.16150319  0.37267972     0.03700
C178        C  0.38824770  0.15695940  0.36266356    -0.25100
H179        H  0.34271068  0.14705210  0.30747168     0.08700
H180        H  0.34300285  0.14840335  0.34100553     0.12300
H181        H  0.43027827  0.15519658  0.30706034     0.12300
H182        H  0.45522061  0.15831580  0.33714179     0.12000
H183        H  0.45663350  0.16427776  0.37100266     0.12600
H184        H  0.36957829  0.15669688  0.36981437     0.14500
C185        C  0.32424059  0.09921220  0.42077420    -0.05500
C186        C  0.29786767  0.10062628  0.42258395    -0.05400
C187        C  0.27001243  0.07454571  0.42206783    -0.23600
C188        C  0.26833215  0.04688895  0.41961637     0.18600
C189        C  0.29483071  0.04554647  0.41709911     0.15800
C190        C  0.32254945  0.07168962  0.41769013    -0.18600
C191        C  0.29325630  0.01801980  0.41444837    -0.20400
C192        C  0.26561322  0.49181026  0.41468593    -0.13000
C193        C  0.23926244  0.49285023  0.41775646     0.03700
C194        C  0.24070232  0.52048828  0.41991329    -0.25100
H195        H  0.29883318  0.12173837  0.42494325     0.08700
H196        H  0.24986554  0.07593848  0.42391132     0.12300
H197        H  0.34288001  0.07054065  0.41603794     0.12300
H198        H  0.31342462  0.01672430  0.41241878     0.12000
H199        H  0.26491414  0.47070694  0.41296478     0.12600
H200        H  0.22037882  0.52146216  0.42211517     0.14500
C201        C  0.07956046  0.34454822  0.42536058    -0.05500
C202        C  0.05478871  0.34796141  0.42146670    -0.05400
C203        C  0.02592049  0.32350848  0.42176630    -0.23600
C204        C  0.02136487  0.29534467  0.42629001     0.18600
C205        C  0.04616220  0.29169328  0.43042481     0.15800
C206        C  0.07526323  0.31634892  0.42969590    -0.18600
C207        C  0.54129594  0.26351001  0.43523205    -0.20400
C208        C  0.51221915  0.23907784  0.43560928    -0.13000
C209        C  0.48756484  0.24252203  0.43118346     0.03700
C210        C  0.49231704  0.27083728  0.42672689    -0.25100
H211        H  0.05783570  0.36959878  0.41794772     0.08700
H212        H  0.00716683  0.32664807  0.41852862     0.12300
H213        H  0.09441086  0.31377054  0.43281209     0.12300
H214        H  0.06001118  0.26025690  0.43853608     0.12000
H215        H  0.50907590  0.21740690  0.43910472     0.12600
H216        H  0.47347710  0.27375118  0.42329316     0.14500
C217        C  0.31907468  0.08876617  0.24076472    -0.05500
C218        C  0.32381211  0.06484392  0.23667107    -0.05400
C219        C  0.29978706  0.03571866  0.23534168    -0.23600
C220        C  0.27040545  0.02978709  0.23802573     0.18600
C221        C  0.26517533  0.05374557  0.24137140     0.15800
C222        C  0.28950767  0.08307168  0.24272941    -0.18600
C223        C  0.23572545  0.04783278  0.24374951    -0.20400
C224        C  0.21183304  0.51853326  0.24330943    -0.13000
C225        C  0.21685208  0.49443207  0.24066998     0.03700
C226        C  0.24625403  0.50030227  0.23773794    -0.25100
H227        H  0.34628003  0.06851335  0.23490651     0.08700
H228        H  0.30427006  0.01774458  0.23256647     0.12300
H229        H  0.28545978  0.10126490  0.24578183     0.12300
H230        H  0.23117350  0.06583158  0.24625361     0.12000
H231        H  0.18940854  0.51466850  0.24569639     0.12600
H232        H  0.25038625  0.48194219  0.23560282     0.14500
C233        C  0.07289439  0.33347432  0.26009840    -0.05500
C234        C  0.07399179  0.30730362  0.26311592    -0.05400
C235        C  0.04743591  0.27980763  0.26452462    -0.23600
C236        C  0.01945711  0.27813417  0.26293603     0.18600
C237        C  0.01820077  0.30453600  0.26080334     0.15800
C238        C  0.04483417  0.33192446  0.25949133    -0.18600
C239        C  0.49035557  0.30304123  0.25938989    -0.20400
C240        C  0.46389810  0.27548249  0.25917197    -0.13000
C241        C  0.46491007  0.24899328  0.26036292     0.03700
C242        C  0.49278034  0.25051313  0.26275339    -0.25100
H243        H  0.09530176  0.30796202  0.26373967     0.08700
H244        H  0.04878682  0.25976008  0.26632273     0.12300
H245        H  0.04363589  0.35201517  0.25741148     0.12300
H246        H  0.48907455  0.32317181  0.25785493     0.12000
H247        H  0.44275321  0.27485666  0.25730685     0.12600
H248        H  0.49379193  0.23016855  0.26384495     0.14500
C249        C  0.15023286  0.43941618  0.30135827    -0.05500
C250        C  0.17909167  0.45731368  0.30862033    -0.05400
C251        C  0.18361336  0.46113635  0.32761471    -0.23600
C252        C  0.15935378  0.44653525  0.33973024     0.18600
C253        C  0.12989552  0.42986165  0.33262193     0.15800
C254        C  0.12544619  0.42669529  0.31335732    -0.18600
C255        C  0.10577266  0.41501173  0.34494020    -0.20400
C256        C  0.11100100  0.41523760  0.36393761    -0.13000
C257        C  0.14035391  0.43036150  0.37082787     0.03700
C258        C  0.16433685  0.44667523  0.35875095    -0.25100
H259        H  0.19841001  0.46711838  0.29954584     0.08700
H260        H  0.20627637  0.47414229  0.33283378     0.12300
H261        H  0.10319494  0.41241640  0.30781655     0.12300
H262        H  0.08304310  0.40214518  0.33982043     0.12000
H263        H  0.09232296  0.40229651  0.37312033     0.12600
H264        H  0.18703874  0.45817363  0.36409326     0.14500
C265        C  0.24026708  0.39532965  0.52775730    -0.05500
C266        C  0.25494388  0.39362170  0.51186370    -0.05400
C267        C  0.24462428  0.39555569  0.49431899    -0.23600
C268        C  0.21996435  0.39999769  0.49244184     0.18600
C269        C  0.20562240  0.40254213  0.50839778     0.15800
C270        C  0.21558127  0.39977978  0.52586363    -0.18600
C271        C  0.18170448  0.40806256  0.50664340    -0.20400
C272        C  0.17194861  0.41096769  0.48920130    -0.13000
C273        C  0.18552139  0.40780730  0.47319398     0.03700
C274        C  0.20954979  0.40223710  0.47494009    -0.25100
H275        H  0.27404438  0.39034821  0.51301720     0.08700
H276        H  0.25604307  0.39377457  0.48222027     0.12300
H277        H  0.20442792  0.40170687  0.53807188     0.12300
H278        H  0.17063335  0.41029718  0.51877984     0.12000
H279        H  0.15353002  0.41533445  0.48821891     0.12600
H280        H  0.22050294  0.40018533  0.46268062     0.14500
C281        C  0.26802424  0.40294777  0.70226434    -0.05500
C282        C  0.25257595  0.41528118  0.69344125    -0.05400
C283        C  0.25518136  0.42015815  0.67452438    -0.23600
C284        C  0.27288625  0.41224748  0.66395708     0.18600
C285        C  0.28983443  0.40113194  0.67262216     0.15800
C286        C  0.28763481  0.39690474  0.69193860    -0.18600
C287        C  0.30720646  0.39299899  0.66160544    -0.20400
C288        C  0.30626681  0.39422488  0.64223683    -0.13000
C289        C  0.28799182  0.40364299  0.63374853     0.03700
C290        C  0.27233882  0.41364501  0.64473741    -0.25100
H291        H  0.23759579  0.42029303  0.70118132     0.08700
H292        H  0.24224897  0.42887874  0.66804471     0.12300
H293        H  0.29944114  0.38716331  0.69866487     0.12300
H294        H  0.32046503  0.38452590  0.66791749     0.12000
H295        H  0.31839715  0.38629798  0.63394788     0.12600
H296        H  0.25834422  0.42112646  0.63821512     0.14500
C297        C  0.27734234  0.47748304  0.58263762    -0.05500
C298        C  0.30613953  0.50235340  0.58035230    -0.05400
C299        C  0.31037173  0.03111635  0.58070623    -0.23600
C300        C  0.28584750  0.03539014  0.58321248     0.18600
C301        C  0.25677036  0.01045494  0.58539519     0.15800
C302        C  0.25275825  0.48171525  0.58523943    -0.18600
C303        C  0.23213340  0.01467927  0.58747105    -0.20400
C304        C  0.23621814  0.04335113  0.58716516    -0.13000
C305        C  0.26502932  0.06817773  0.58512140     0.03700
C306        C  0.28983940  0.06414613  0.58333644    -0.25100
H307        H  0.32544084  0.49960300  0.57828053     0.08700
H308        H  0.33276259  0.04995468  0.57890852     0.12300
H309        H  0.23044499  0.46265343  0.58687295     0.12300
H310        H  0.20971510  0.99583167  0.58913456     0.12000
H311        H  0.21685416  0.04616668  0.58864730     0.12600
H312        H  0.31206982  0.08329946  0.58157394     0.14500
C313        C  0.28111318  0.22999930  0.58247445    -0.05500
C314        C  0.30880073  0.25647468  0.58374927    -0.05400
C315        C  0.31016520  0.28405096  0.58291733    -0.23600
C316        C  0.28381162  0.28547790  0.58107419     0.18600
C317        C  0.25580063  0.25893423  0.58018001     0.15800
C318        C  0.25467610  0.23141050  0.58072535    -0.18600
C319        C  0.22939189  0.26037361  0.57881697    -0.20400
C320        C  0.23071867  0.28795741  0.57832434    -0.13000
C321        C  0.25849374  0.31442191  0.57886848     0.03700
C322        C  0.28497408  0.31299531  0.58021855    -0.25100
H323        H  0.32939531  0.25583754  0.58508937     0.08700
H324        H  0.33180764  0.30424838  0.58372052     0.12300
H325        H  0.23314522  0.21104881  0.57994081     0.12300
H326        H  0.20772558  0.24017893  0.57821616     0.12000
H327        H  0.21009393  0.28861589  0.57735617     0.12600
H328        H  0.30652646  0.33334652  0.58092664     0.14500
C329        C  0.31170445  0.15986505  0.53310487    -0.05500
C330        C  0.29683507  0.16030926  0.51704736    -0.05400
C331        C  0.31012661  0.16335423  0.49976208    -0.23600
C332        C  0.33825848  0.16541829  0.49822452     0.18600
C333        C  0.35309302  0.16407987  0.51421053     0.15800
C334        C  0.33988911  0.16171337  0.53158020    -0.18600
C335        C  0.38073063  0.16494922  0.51247523    -0.20400
C336        C  0.39362361  0.16734500  0.49503497    -0.13000
C337        C  0.37943233  0.16974116  0.47920115     0.03700
C338        C  0.35170916  0.16865781  0.48092830    -0.25100
H339        H  0.27511241  0.15875542  0.51788890     0.08700
H340        H  0.29836694  0.16404348  0.48757677     0.12300
H341        H  0.35133363  0.16086366  0.54388676     0.12300
H342        H  0.39228182  0.16364537  0.52458599     0.12000
H343        H  0.41483975  0.16786148  0.49393236     0.12600
H344        H  0.34027243  0.16977540  0.46868257     0.14500
C345        C  0.24277899  0.05174207  0.76486963    -0.05500
C346        C  0.21399581  0.02733172  0.76826925    -0.05400
C347        C  0.20910392  0.99820923  0.76865741    -0.23600
C348        C  0.23290759  0.99284837  0.76569293     0.18600
C349        C  0.26208880  0.01732022  0.76290759     0.15800
C350        C  0.26682822  0.04649333  0.76250407    -0.18600
C351        C  0.28603632  0.01220566  0.76019039    -0.20400
C352        C  0.28138462  0.48332295  0.76010114    -0.13000
C353        C  0.25239683  0.45862488  0.76225329     0.03700
C354        C  0.22823518  0.46360171  0.76519254    -0.25100
H355        H  0.19502370  0.03065816  0.77019246     0.08700
H356        H  0.18660296  0.97985083  0.77096760     0.12300
H357        H  0.28914280  0.06502790  0.75991281     0.12300
H358        H  0.30855348  0.03065278  0.75806083     0.12000
H359        H  0.30039728  0.48020828  0.75770744     0.12600
H360        H  0.20580910  0.44478885  0.76694135     0.14500
C361        C  0.23959878  0.29885163  0.74531891    -0.05500
C362        C  0.21270312  0.27310460  0.74050100    -0.05400
C363        C  0.21141628  0.24553411  0.73914640    -0.23600
C364        C  0.23702986  0.24330291  0.74256042     0.18600
C365        C  0.26447414  0.26927174  0.74664088     0.15800
C366        C  0.26557186  0.29679452  0.74797939    -0.18600
C367        C  0.29019568  0.26716743  0.74985189    -0.20400
C368        C  0.28850758  0.23939776  0.74972692    -0.13000
C369        C  0.26104773  0.21330786  0.74654505     0.03700
C370        C  0.23548038  0.21547568  0.74257689    -0.25100
H371        H  0.19247554  0.27413568  0.73826204     0.08700
H372        H  0.19024550  0.22586608  0.73584014     0.12300
H373        H  0.28657746  0.31652075  0.75151942     0.12300
H374        H  0.31144161  0.28690596  0.75292658     0.12000
H375        H  0.30839646  0.23820392  0.75292703     0.12600
H376        H  0.21421919  0.19543310  0.73999701     0.14500
C377        C  0.23530561  0.11060667  0.70258629    -0.05500
C378        C  0.25159073  0.09856733  0.69432073    -0.05400
C379        C  0.25520050  0.09924196  0.67528879    -0.23600
C380        C  0.24286477  0.11234323  0.66418833     0.18600
C381        C  0.22445882  0.12253509  0.67210487     0.15800
C382        C  0.22046828  0.12129299  0.69141037    -0.18600
C383        C  0.21223179  0.13560010  0.66065073    -0.20400
C384        C  0.21967986  0.14007649  0.64182340    -0.13000
C385        C  0.23961495  0.13177639  0.63437420     0.03700
C386        C  0.25027896  0.11706620  0.64548006    -0.25100
H387        H  0.26320631  0.09033703  0.70275589     0.08700
H388        H  0.26910538  0.09109534  0.66936739     0.12300
H389        H  0.20826827  0.13102785  0.69776367     0.12300
H390        H  0.19790471  0.14337341  0.66637547     0.12000
H391        H  0.21115732  0.15132769  0.63334217     0.12600
H392        H  0.26539108  0.11030126  0.63964099     0.14500
C393        C  0.21606433  0.34916020  0.80666081    -0.05500
C394        C  0.23260128  0.36521019  0.82214075    -0.05400
C395        C  0.22208887  0.35485392  0.83993034    -0.23600
C396        C  0.19518295  0.32790710  0.84253605     0.18600
C397        C  0.17875170  0.31102983  0.82709189     0.15800
C398        C  0.18908353  0.32199876  0.80923731    -0.18600
C399        C  0.15230520  0.28357459  0.82983895    -0.20400
C400        C  0.14195740  0.27323853  0.84774402    -0.13000
C401        C  0.15759456  0.29050754  0.86311718     0.03700
C402        C  0.18436126  0.31769595  0.86035283    -0.25100
H403        H  0.25335497  0.38610615  0.82047109     0.08700
H404        H  0.23500594  0.36795151  0.85166921     0.12300
H405        H  0.17634178  0.30925533  0.79734088     0.12300
H406        H  0.13952747  0.27021232  0.81814384     0.12000
H407        H  0.12130946  0.25229893  0.84956814     0.12600
H408        H  0.19682494  0.33102076  0.87216167     0.14500
C409        C  0.14348346  0.38156608  0.19714007    -0.05500
C410        C  0.14008351  0.39501342  0.18127994    -0.05400
C411        C  0.14058918  0.38382237  0.16369250    -0.23600
C412        C  0.14386075  0.35858837  0.16167224     0.18600
C413        C  0.14613712  0.34421802  0.17756744     0.15800
C414        C  0.14631305  0.35598906  0.19512476    -0.18600
C415        C  0.14819494  0.31830762  0.17562889    -0.20400
C416        C  0.14817606  0.30680329  0.15809566    -0.13000
C417        C  0.14690689  0.32140496  0.14216062     0.03700
C418        C  0.14476391  0.34737902  0.14407546    -0.25100
H419        H  0.13781117  0.41462564  0.18246704     0.08700
H420        H  0.13849829  0.39495893  0.15165917     0.12300
H421        H  0.14848490  0.34510035  0.20727537     0.12300
H422        H  0.14968498  0.30685025  0.18768817     0.12000
H423        H  0.14960836  0.28670741  0.15696879     0.12600
H424        H  0.14316273  0.35849449  0.13186579     0.14500
C425        C  0.11053160  0.25627790  0.96997508    -0.05500
C426        C  0.10025934  0.27421211  0.97806660    -0.05400
C427        C  0.10070041  0.27785131  0.99710305    -0.23600
C428        C  0.11169277  0.26379569  0.00847381     0.18600
C429        C  0.11998728  0.24381719  0.00076578     0.15800
C430        C  0.11910031  0.23991368  0.98141333    -0.18600
C431        C  0.13062216  0.22961827  0.01253081    -0.20400
C432        C  0.13446853  0.23643112  0.03148062    -0.13000
C433        C  0.12813604  0.25781393  0.03879060     0.03700
C434        C  0.11594810  0.27069989  0.02730680    -0.25100
H435        H  0.09336130  0.28680421  0.96951312     0.08700
H436        H  0.09385886  0.29287420  0.00285185     0.12300
H437        H  0.12724850  0.22619179  0.97527265     0.12300
H438        H  0.13684337  0.21401043  0.00699899     0.12000
H439        H  0.14362281  0.22606744  0.04023202     0.12600
H440        H  0.11052588  0.28683325  0.03300870     0.14500
C441        C  0.45581346  0.26806919  0.90236442    -0.05500
C442        C  0.48043027  0.29603237  0.89781434    -0.05400
C443        C  0.00946835  0.30047349  0.89758448    -0.23600
C444        C  0.01444065  0.27696843  0.90179182     0.18600
C445        C  0.98972171  0.24840360  0.90553574     0.15800
C446        C  0.46059598  0.24414833  0.90587417    -0.18600
C447        C  0.99463236  0.22478116  0.90948865    -0.20400
C448        C  0.02377044  0.22958562  0.91026132    -0.13000
C449        C  0.04855655  0.25814465  0.90726601     0.03700
C450        C  0.04372135  0.28170741  0.90276931    -0.25100
H451        H  0.47737118  0.31482393  0.89494689     0.08700
H452        H  0.02808251  0.32244102  0.89451094     0.12300
H453        H  0.44180689  0.22244949  0.90929886     0.12300
H454        H  0.97598437  0.20271442  0.91230552     0.12000
H455        H  0.02693217  0.21105030  0.91375948     0.12600
H456        H  0.06268943  0.30373371  0.90028076     0.14500
C457        C  0.29659082  0.25663056  0.92075963    -0.05500
C458        C  0.27051616  0.22932871  0.92419679    -0.05400
C459        C  0.24304755  0.22812305  0.92653532    -0.23600
C460        C  0.24132470  0.25423287  0.92552199     0.18600
C461        C  0.26761101  0.28197264  0.92278330     0.15800
C462        C  0.29508148  0.28298850  0.92042824    -0.18600
C463        C  0.26580610  0.30808064  0.92187691    -0.20400
C464        C  0.23794947  0.30651675  0.92276477    -0.13000
C465        C  0.21163343  0.27883999  0.92454844     0.03700
C466        C  0.21358731  0.25289216  0.92649031    -0.25100
H467        H  0.27122385  0.20880364  0.92460944     0.08700
H468        H  0.22307039  0.20671370  0.92872296     0.12300
H469        H  0.31516805  0.30423343  0.91799704     0.12300
H470        H  0.28579888  0.32954770  0.91989298     0.12000
H471        H  0.23687944  0.32673332  0.92119154     0.12600
H472        H  0.19336837  0.23143739  0.92803432     0.14500
C473        C  0.27779903  0.16460070  0.80743164    -0.05500
C474        C  0.26250088  0.15074364  0.82370334    -0.05400
C475        C  0.27487477  0.16340822  0.84088814    -0.23600
C476        C  0.30238933  0.19031520  0.84193398     0.18600
C477        C  0.31706913  0.20506622  0.82555820     0.15800
C478        C  0.30479224  0.19201809  0.80848943    -0.18600
C479        C  0.34404865  0.23240379  0.82650109    -0.20400
C480        C  0.35680825  0.24482137  0.84358618    -0.13000
C481        C  0.34309007  0.22976656  0.85991948     0.03700
C482        C  0.31569849  0.20261066  0.85901124    -0.25100
H483        H  0.24166767  0.12968852  0.82313397     0.08700
H484        H  0.26317753  0.15197938  0.85334335     0.12300
H485        H  0.31645287  0.20311220  0.79592816     0.12300
H486        H  0.35539241  0.24405531  0.81401784     0.12000
H487        H  0.37776241  0.26577386  0.84403475     0.12600
H488        H  0.30468823  0.19112800  0.87162235     0.14500
C489        C  0.39799424  0.19587042  0.19785798    -0.05500
C490        C  0.40443764  0.18221605  0.18318619    -0.05400
C491        C  0.40406466  0.19098692  0.16498560    -0.23600
C492        C  0.39759726  0.21376958  0.16125438     0.18600
C493        C  0.39282057  0.22878299  0.17601095     0.15800
C494        C  0.39291889  0.21964954  0.19415928    -0.18600
C495        C  0.38726262  0.25218094  0.17234621    -0.20400
C496        C  0.38531542  0.25992724  0.15415456    -0.13000
C497        C  0.38834506  0.24401675  0.13943343     0.03700
C498        C  0.39505751  0.22132239  0.14305202    -0.25100
H499        H  0.40868651  0.16409032  0.18574077     0.08700
H500        H  0.40819815  0.17953749  0.15381384     0.12300
H501        H  0.38853886  0.23078580  0.20542822     0.12300
H502        H  0.38386408  0.26410454  0.18354460     0.12000
H503        H  0.38031123  0.27754819  0.15158423     0.12600
H504        H  0.39797023  0.20934211  0.13166883     0.14500
C505        C  0.45475617  0.25745003  0.07947917    -0.05500
C506        C  0.45510756  0.23092467  0.08265973    -0.05400
C507        C  0.48229907  0.23134902  0.08437748    -0.23600
C508        C  0.00946430  0.25829118  0.08291276     0.18600
C509        C  0.00922941  0.28477870  0.07870278     0.15800
C510        C  0.48189229  0.28418616  0.07706042    -0.18600
C511        C  0.03632234  0.31161380  0.07681980    -0.20400
C512        C  0.06347159  0.31240161  0.07955206    -0.13000
C513        C  0.06394816  0.28638837  0.08429338     0.03700
C514        C  0.03682589  0.25929199  0.08575034    -0.25100
H515        H  0.43439717  0.21011102  0.08466645     0.08700
H516        H  0.48207983  0.21077472  0.08739851     0.12300
H517        H  0.48175367  0.30472081  0.07447716     0.12300
H518        H  0.03650980  0.33207124  0.07346807     0.12000
H519        H  0.08410782  0.33347508  0.07816123     0.12600
H520        H  0.03697900  0.23900829  0.08914483     0.14500
C521        C  0.22052005  0.28884664  0.09376133    -0.05500
C522        C  0.24767268  0.31479653  0.08961089    -0.05400
C523        C  0.27454132  0.31433871  0.08902266    -0.23600
C524        C  0.27475884  0.28784353  0.09240898     0.18600
C525        C  0.24763067  0.26156280  0.09657927     0.15800
C526        C  0.22073510  0.26227491  0.09736880    -0.18600
C527        C  0.24783290  0.23493614  0.09958652    -0.20400
C528        C  0.27459463  0.23428322  0.09825957    -0.13000
C529        C  0.30168862  0.26031724  0.09416116     0.03700
C530        C  0.30159250  0.28711527  0.09140577    -0.25100
H531        H  0.24813999  0.33549531  0.08669504     0.08700
H532        H  0.29511890  0.33465884  0.08571871     0.12300
H533        H  0.19992605  0.24201238  0.10041094     0.12300
H534        H  0.22724484  0.21454236  0.10275255     0.12000
H535        H  0.27409520  0.21338014  0.10042209     0.12600
H536        H  0.32229308  0.30728926  0.08803434     0.14500
C537        C  0.37148739  0.27007020  0.03213323    -0.05500
C538        C  0.34600661  0.24767016  0.02315809    -0.05400
C539        C  0.34401113  0.24688171  0.00407573    -0.23600
C540        C  0.36764705  0.26831676  0.99353513     0.18600
C541        C  0.39293811  0.29200044  0.00219052     0.15800
C542        C  0.39459358  0.29296546  0.02164500    -0.18600
C543        C  0.41640846  0.31326802  0.99111825    -0.20400
C544        C  0.41530008  0.31006631  0.97177785    -0.13000
C545        C  0.39078968  0.28547907  0.96346490     0.03700
C546        C  0.36673601  0.26542724  0.97442243    -0.25100
H547        H  0.32782602  0.23008915  0.03094555     0.08700
H548        H  0.32441510  0.22879752  0.99753759     0.12300
H549        H  0.41436108  0.31030037  0.02848850     0.12300
H550        H  0.43592359  0.33176222  0.99742041     0.12000
H551        H  0.43394230  0.32592669  0.96346579     0.12600
H552        H  0.34742197  0.24676083  0.96800375     0.14500
O553        O  0.32946074  0.73519008  0.08953925    -0.72000
O554        O  0.40141925  0.73453333  0.07888976    -0.72300
O555        O  0.37007923  0.72834876  0.10918521    -0.72100
O556        O  0.36119700  0.74112473  0.05900974    -0.72100
O557        O  0.38962388  0.78892812  0.06261708    -0.72100
O558        O  0.39269392  0.77607101  0.11428224    -0.72100
O559        O  0.42698457  0.78193185  0.08498753    -0.72000
O560        O  0.35487811  0.78342028  0.09186398    -0.72200
V561        V  0.36594839  0.73575125  0.08421547     1.35200
V562        V  0.39051015  0.78172698  0.08839322     1.35200
C563        C  0.32980946  0.75958005  0.09189763     0.77200
C564        C  0.42651880  0.75799884  0.08086451     0.77300
C565        C  0.38332335  0.74990943  0.12024508     0.77100
C566        C  0.37436889  0.76690884  0.05208005     0.77100
O567        O  0.40351347  0.74045206  0.91011108    -0.72000
O568        O  0.32860566  0.73561413  0.92003090    -0.72300
O569        O  0.35265558  0.72391813  0.89095044    -0.72100
O570        O  0.37804028  0.75110150  0.93928031    -0.72100
O571        O  0.39570927  0.79713497  0.93096208    -0.72100
O572        O  0.37183449  0.76951837  0.88136468    -0.72100
O573        O  0.34698143  0.78112958  0.91048557    -0.72000
O574        O  0.42178807  0.78649299  0.90172251    -0.72200
V575        V  0.36626647  0.73871257  0.91486963     1.35200
V576        V  0.38389052  0.78271251  0.90622545     1.35200
C577        C  0.42566876  0.76466099  0.90460218     0.77200
C578        C  0.32519291  0.75776516  0.91700188     0.77300
C579        C  0.35677078  0.74175368  0.87804498     0.77100
C580        C  0.38922967  0.77816208  0.94367390     0.77100
O581        O  0.19099257  0.81185215  0.08775352    -0.72000
O582        O  0.11708160  0.81062882  0.08333355    -0.72300
O583        O  0.15786367  0.82657590  0.10997636    -0.72100
O584        O  0.14909861  0.79625566  0.06126953    -0.72100
O585        O  0.12623799  0.75085607  0.07160010    -0.72100
O586        O  0.13460445  0.78146003  0.12069610    -0.72100
O587        O  0.09356532  0.76525065  0.09362608    -0.72000
O588        O  0.16761581  0.76670368  0.09838679    -0.72200
V589        V  0.15349437  0.81043326  0.08584451     1.35200
V590        V  0.13105722  0.76696182  0.09596059     1.35200
C591        C  0.19190344  0.78926545  0.09344494     0.77200
C592        C  0.09267852  0.78750450  0.08732332     0.77300
C593        C  0.14669426  0.80926995  0.12358516     0.77100
C594        C  0.13520783  0.76855920  0.05805117     0.77100
O595        O  0.10133294  0.78889160  0.91269286    -0.72000
O596        O  0.17776429  0.79804574  0.92411660    -0.72300
O597        O  0.15154132  0.80226047  0.89369276    -0.72100
O598        O  0.12816319  0.78582581  0.94337900    -0.72100
O599        O  0.11317488  0.73887698  0.93934111    -0.72100
O600        O  0.13148521  0.75501483  0.88767021    -0.72100
O601        O  0.16010458  0.75127332  0.91752096    -0.72000
O602        O  0.08346644  0.74127069  0.90948475    -0.72200
V603        V  0.13928470  0.79280259  0.91838365     1.35200
V604        V  0.12231631  0.74745795  0.91355300     1.35200
C605        C  0.07912336  0.76314846  0.90973260     0.77200
C606        C  0.18195396  0.77607710  0.92224521     0.77300
C607        C  0.14599722  0.78187447  0.88218440     0.77100
C608        C  0.11734578  0.76005502  0.95005855     0.77100
O609        O  0.27253906  0.60416580  0.75826221    -0.72000
O610        O  0.28046565  0.67981223  0.74733390    -0.72300
O611        O  0.28701959  0.65450169  0.77729385    -0.72100
O612        O  0.26710147  0.63018807  0.72807847    -0.72100
O613        O  0.21987294  0.61348358  0.73363348    -0.72100
O614        O  0.24007187  0.63624192  0.78439672    -0.72100
O615        O  0.23343526  0.66192555  0.75405000    -0.72000
O616        O  0.22528618  0.58655309  0.76401863    -0.72200
V617        V  0.27579152  0.64172423  0.75287944     1.35200
V618        V  0.23051977  0.62477136  0.75895929     1.35200
C619        C  0.24722992  0.58218016  0.76252624     0.77200
C620        C  0.25821412  0.68375512  0.74914763     0.77300
C621        C  0.26746918  0.65068604  0.78910379     0.77100
C622        C  0.24054792  0.61814158  0.72228654     0.77100
O623        O  0.30051486  0.69752346  0.58908130    -0.72000
O624        O  0.29310650  0.62074112  0.58962959    -0.72300
O625        O  0.31421180  0.66554417  0.56565464    -0.72100
O626        O  0.27995796  0.65203072  0.61326214    -0.72100
O627        O  0.23542449  0.63429423  0.60156227    -0.72100
O628        O  0.26990614  0.64583021  0.55340246    -0.72100
O629        O  0.24811215  0.60183530  0.57844931    -0.72000
O630        O  0.25641564  0.67823912  0.57657251    -0.72200
V631        V  0.29608460  0.65873989  0.58918602     1.35200
V632        V  0.25336708  0.64051431  0.57767090     1.35200
C633        C  0.27949937  0.70082807  0.58272418     0.77200
C634        C  0.26902649  0.59818986  0.58436949     0.77300
C635        C  0.29799558  0.65713117  0.55141805     0.77100
C636        C  0.25201202  0.64014963  0.61559566     0.77100
O637        O  0.22279702  0.90547843  0.75652459    -0.72000
O638        O  0.21847888  0.83121149  0.74492983    -0.72300
O639        O  0.20762511  0.85435414  0.77502797    -0.72100
O640        O  0.23267259  0.88157071  0.72641500    -0.72100
O641        O  0.27898549  0.89663559  0.73363172    -0.72100
O642        O  0.25406729  0.87614661  0.78389877    -0.72100
O643        O  0.26384711  0.84919058  0.75517304    -0.72000
O644        O  0.27019053  0.92435503  0.76232569    -0.72200
V645        V  0.22125030  0.86851532  0.75089283     1.35200
V646        V  0.26588253  0.88625947  0.75867306     1.35200
C647        C  0.24790056  0.92805050  0.76052117     0.77200
C648        C  0.24049942  0.82752142  0.74847206     0.77300
C649        C  0.22640646  0.86050830  0.78780349     0.77100
C650        C  0.25977476  0.89320738  0.72156397     0.77100
O651        O  0.23844268  0.84695949  0.58284835    -0.72000
O652        O  0.24790997  0.92457006  0.58537486    -0.72300
O653        O  0.23127146  0.88312489  0.55930776    -0.72100
O654        O  0.25409245  0.88889055  0.60904685    -0.72100
O655        O  0.30084637  0.90734632  0.60134866    -0.72100
O656        O  0.27766089  0.90272900  0.55053796    -0.72100
O657        O  0.29463574  0.94347536  0.57752837    -0.72000
O658        O  0.28496400  0.86661709  0.57433139    -0.72200
V659        V  0.24385661  0.88611758  0.58396242     1.35200
V660        V  0.28863012  0.90456234  0.57603816     1.35200
C661        C  0.26051375  0.84377463  0.57850603     0.77200
C662        C  0.27305939  0.94725417  0.58187305     0.77300
C663        C  0.25037178  0.89324397  0.54650451     0.77100
C664        C  0.28104829  0.89960200  0.61384261     0.77100
O665        O  0.19485414  0.94168440  0.24640223    -0.72000
O666        O  0.12650271  0.86653110  0.25909919    -0.72300
O667        O  0.15901016  0.88957319  0.22846919    -0.72100
O668        O  0.16299444  0.91787745  0.27700911    -0.72100
O669        O  0.13101792  0.93213405  0.27033856    -0.72100
O670        O  0.13214008  0.90896899  0.21997628    -0.72100
O671        O  0.09776124  0.88334522  0.24980540    -0.72000
O672        O  0.16495376  0.95880062  0.24062182    -0.72200
V673        V  0.16030467  0.90425020  0.25255809     1.35200
V674        V  0.13205843  0.92050180  0.24525147     1.35200
C675        C  0.19133182  0.96354367  0.24232924     0.77200
C676        C  0.10031643  0.86224314  0.25635319     0.77300
C677        C  0.14491674  0.89411096  0.21590701     0.77100
C678        C  0.14765121  0.92941682  0.28210634     0.77100
O679        O  0.13204818  0.86955521  0.41917294    -0.72000
O680        O  0.20737081  0.94046931  0.41443452    -0.72300
O681        O  0.18078665  0.89969997  0.44075630    -0.72100
O682        O  0.15960431  0.91066595  0.39266043    -0.72100
O683        O  0.14028066  0.93643515  0.40367706    -0.72100
O684        O  0.16104085  0.92469625  0.45228705    -0.72100
O685        O  0.18791622  0.96582925  0.42585485    -0.72000
O686        O  0.11303215  0.89572029  0.42998242    -0.72200
V687        V  0.16947887  0.90550890  0.41698410     1.35200
V688        V  0.15093550  0.93013548  0.42779082     1.35200
C689        C  0.10955698  0.87086907  0.42498810     0.77200
C690        C  0.21034711  0.96523590  0.41936234     0.77300
C691        C  0.17515683  0.91075106  0.45470505     0.77100
C692        C  0.14675974  0.92561570  0.38990694     0.77100
O693        O  0.34234684  0.64133865  0.24768988    -0.72000
O694        O  0.41147750  0.71664303  0.25873330    -0.72300
O695        O  0.37996030  0.69060485  0.22839994    -0.72100
O696        O  0.37361210  0.66820549  0.27820907    -0.72100
O697        O  0.40355432  0.65063756  0.27371217    -0.72100
O698        O  0.40755074  0.67076472  0.22253558    -0.72100
O699        O  0.43976236  0.69756748  0.25288937    -0.72000
O700        O  0.37138942  0.62274755  0.24325454    -0.72200
V701        V  0.37735963  0.67875761  0.25315446     1.35200
V702        V  0.40492180  0.66068139  0.24816390     1.35200
C703        C  0.34522558  0.61898719  0.24385088     0.77200
C704        C  0.43749216  0.71986788  0.25743602     0.77300
C705        C  0.39510946  0.68515236  0.21698913     0.77100
C706        C  0.38791016  0.65643763  0.28467937     0.77100
O707        O  0.43492118  0.71936609  0.42585629    -0.72000
O708        O  0.35729420  0.65171883  0.42104735    -0.72300
O709        O  0.38807612  0.68783892  0.44861324    -0.72100
O710        O  0.40281047  0.68273340  0.39820631    -0.72100
O711        O  0.42252167  0.65522868  0.40438515    -0.72100
O712        O  0.40512072  0.65830456  0.45552373    -0.72100
O713        O  0.37612594  0.62328288  0.42671517    -0.72000
O714        O  0.45273288  0.69066118  0.43318963    -0.72200
V715        V  0.39638698  0.68505126  0.42359107     1.35200
V716        V  0.41393979  0.65754357  0.42988622     1.35200
C717        C  0.45711498  0.71649042  0.43019437     0.77200
C718        C  0.35370541  0.62590295  0.42284550     0.77300
C719        C  0.39216740  0.67254628  0.46049161     0.77100
C720        C  0.41380895  0.66717847  0.39256432     0.77100
C721        C  0.38660195  0.65114434  0.30474701    -0.05500
C722        C  0.36179693  0.64834365  0.31460168    -0.05400
C723        C  0.36194497  0.64918345  0.33376362    -0.23600
C724        C  0.38701744  0.65303642  0.34348725     0.18600
C725        C  0.41156197  0.65423311  0.33393818     0.15800
C726        C  0.41111831  0.65302730  0.31448411    -0.18600
C727        C  0.43643709  0.65782985  0.34406972    -0.20400
C728        C  0.43726966  0.66118827  0.36335702    -0.13000
C729        C  0.41344839  0.66145865  0.37261442     0.03700
C730        C  0.38821172  0.65674273  0.36260613    -0.25100
H731        H  0.34259301  0.64663276  0.30741520     0.08700
H732        H  0.34286007  0.64790792  0.34095390     0.12300
H733        H  0.43041508  0.65538134  0.30698790     0.12300
H734        H  0.45542816  0.65863805  0.33706132     0.12000
H735        H  0.45681327  0.66456712  0.37092389     0.12600
H736        H  0.36948040  0.65634108  0.36976485     0.14500
C737        C  0.32424409  0.59919971  0.42068854    -0.05500
C738        C  0.29787097  0.60061428  0.42249549    -0.05400
C739        C  0.27001523  0.57453439  0.42197584    -0.23600
C740        C  0.26833441  0.54687747  0.41952422     0.18600
C741        C  0.29483300  0.54553560  0.41700426     0.15800
C742        C  0.32255254  0.57167844  0.41759824    -0.18600
C743        C  0.29325803  0.51800908  0.41435208    -0.20400
C744        C  0.26561037  0.99182190  0.41477350    -0.13000
C745        C  0.23925847  0.99286335  0.41783443     0.03700
C746        C  0.24069956  0.02050089  0.41999816    -0.25100
H747        H  0.29883665  0.62172588  0.42485737     0.08700
H748        H  0.24986849  0.57592736  0.42381987     0.12300
H749        H  0.34288342  0.57052992  0.41594624     0.12300
H750        H  0.31342578  0.51671396  0.41231833     0.12000
H751        H  0.26491029  0.97071838  0.41305041     0.12600
H752        H  0.22037563  0.02147561  0.42219544     0.14500
C753        C  0.07953928  0.84457220  0.42540498    -0.05500
C754        C  0.05475371  0.84799858  0.42158342    -0.05400
C755        C  0.02588568  0.82354614  0.42189948    -0.23600
C756        C  0.02134497  0.79536820  0.42636621     0.18600
C757        C  0.04615641  0.79170307  0.43042819     0.15800
C758        C  0.07525506  0.81635925  0.42968392    -0.18600
C759        C  0.54128648  0.76350954  0.43521944    -0.20400
C760        C  0.51221237  0.73907134  0.43557527    -0.13000
C761        C  0.48756081  0.74251283  0.43113639     0.03700
C762        C  0.49231172  0.77083158  0.42669163    -0.25100
H763        H  0.05778808  0.86964651  0.41810931     0.08700
H764        H  0.00712083  0.82669680  0.41871835     0.12300
H765        H  0.09441244  0.81376931  0.43274519     0.12300
H766        H  0.06003376  0.76024175  0.43842756     0.12000
H767        H  0.50906958  0.71739830  0.43906416     0.12600
H768        H  0.47347351  0.77374393  0.42325029     0.14500
C769        C  0.31905023  0.58879631  0.24066382    -0.05500
C770        C  0.32378308  0.56488896  0.23651098    -0.05400
C771        C  0.29975745  0.53576453  0.23516909    -0.23600
C772        C  0.27038036  0.52981961  0.23790088     0.18600
C773        C  0.26515285  0.55376753  0.24129704     0.15800
C774        C  0.28948508  0.58309230  0.24266531    -0.18600
C775        C  0.23570720  0.54784414  0.24371991    -0.20400
C776        C  0.21184756  0.01852392  0.24333782    -0.13000
C777        C  0.21686657  0.99441447  0.24074119     0.03700
C778        C  0.24627519  0.00027322  0.23786038    -0.25100
H779        H  0.34624892  0.56856779  0.23471280     0.08700
H780        H  0.30423787  0.51780008  0.23235145     0.12300
H781        H  0.28543985  0.60127475  0.24576043     0.12300
H782        H  0.23115712  0.56583529  0.24626122     0.12000
H783        H  0.18941821  0.01466891  0.24568728     0.12600
H784        H  0.25040904  0.98190690  0.23576172     0.14500
C785        C  0.07287768  0.83347483  0.26014690    -0.05500
C786        C  0.07396696  0.80729840  0.26315822    -0.05400
C787        C  0.04740670  0.77980402  0.26455386    -0.23600
C788        C  0.01943250  0.77813858  0.26295730     0.18600
C789        C  0.01818419  0.80454528  0.26082911     0.15800
C790        C  0.04482134  0.83193172  0.25953194    -0.18600
C791        C  0.49033568  0.80304134  0.25940674    -0.20400
C792        C  0.46387602  0.77548229  0.25919106    -0.13000
C793        C  0.46488837  0.74899034  0.26035439     0.03700
C794        C  0.49276201  0.75050773  0.26271842    -0.25100
H795        H  0.09527415  0.80795164  0.26378687     0.08700
H796        H  0.04875104  0.75975213  0.26634792     0.12300
H797        H  0.04362940  0.85202664  0.25745597     0.12300
H798        H  0.48905339  0.82317430  0.25789217     0.12000
H799        H  0.44272854  0.77485911  0.25734715     0.12600
H800        H  0.49377490  0.73016158  0.26378925     0.14500
C801        C  0.15026056  0.93941721  0.30141683    -0.05500
C802        C  0.17912122  0.95730458  0.30867839    -0.05400
C803        C  0.18363850  0.96114904  0.32767196    -0.23600
C804        C  0.15937225  0.94657630  0.33978592     0.18600
C805        C  0.12991449  0.92991005  0.33267579     0.15800
C806        C  0.12547027  0.92672594  0.31341237    -0.18600
C807        C  0.10578512  0.91508224  0.34499189    -0.20400
C808        C  0.11100578  0.91531877  0.36399038    -0.13000
C809        C  0.14035683  0.93043436  0.37088274     0.03700
C810        C  0.16434688  0.94673128  0.35880780    -0.25100
H811        H  0.19844159  0.96708794  0.29960520     0.08700
H812        H  0.20630129  0.97414800  0.33289262     0.12300
H813        H  0.10321768  0.91245581  0.30787082     0.12300
H814        H  0.08305657  0.90222038  0.33986992     0.12000
H815        H  0.09232344  0.90238728  0.37317223     0.12600
H816        H  0.18704735  0.95821978  0.36415265     0.14500
C817        C  0.24039825  0.89539847  0.52773173    -0.05500
C818        C  0.25503222  0.89364905  0.51182958    -0.05400
C819        C  0.24467598  0.89556172  0.49429205    -0.23600
C820        C  0.22002319  0.90002063  0.49243344     0.18600
C821        C  0.20573219  0.90261291  0.50839934     0.15800
C822        C  0.21572924  0.89987741  0.52585586    -0.18600
C823        C  0.18182112  0.90814683  0.50666512    -0.20400
C824        C  0.17202025  0.91101908  0.48923168    -0.13000
C825        C  0.18554241  0.90781343  0.47321519     0.03700
C826        C  0.20956403  0.90222882  0.47494100    -0.25100
H827        H  0.27411887  0.89035122  0.51297115     0.08700
H828        H  0.25605599  0.89374450  0.48218470     0.12300
H829        H  0.20461093  0.90183696  0.53807174     0.12300
H830        H  0.17079029  0.91041707  0.51881051     0.12000
H831        H  0.15360975  0.91540020  0.48826349     0.12600
H832        H  0.22047878  0.90014401  0.46267284     0.14500
C833        C  0.26773563  0.90275217  0.70222752    -0.05500
C834        C  0.25219421  0.91496711  0.69338274    -0.05400
C835        C  0.25483502  0.91986629  0.67446941    -0.23600
C836        C  0.27267217  0.91209749  0.66392646     0.18600
C837        C  0.28970163  0.90109324  0.67261191     0.15800
C838        C  0.28746380  0.89684447  0.69192634    -0.18600
C839        C  0.30720141  0.89309539  0.66161564    -0.20400
C840        C  0.30631269  0.89434306  0.64224538    -0.13000
C841        C  0.28796551  0.90365396  0.63373687     0.03700
C842        C  0.27218414  0.91352829  0.64470822    -0.25100
H843        H  0.23712562  0.91987927  0.70110320     0.08700
H844        H  0.24183658  0.92849795  0.66797271     0.12300
H845        H  0.29934577  0.88719755  0.69866945     0.12300
H846        H  0.32052363  0.88470873  0.66794362     0.12000
H847        H  0.31854331  0.88651537  0.63397011     0.12600
H848        H  0.25813499  0.92093041  0.63817111     0.14500
C849        C  0.27734919  0.97748975  0.58261965    -0.05500
C850        C  0.30613440  0.00237694  0.58033047    -0.05400
C851        C  0.31040222  0.53110236  0.58071754    -0.23600
C852        C  0.28589158  0.53540199  0.58320854     0.18600
C853        C  0.25680311  0.51048335  0.58538953     0.15800
C854        C  0.25275082  0.98169616  0.58523335    -0.18600
C855        C  0.23218005  0.51473285  0.58745069    -0.20400
C856        C  0.23628979  0.54341338  0.58713170    -0.13000
C857        C  0.26511208  0.56822381  0.58508867     0.03700
C858        C  0.28990830  0.56416732  0.58331874    -0.25100
H859        H  0.32544628  0.99964736  0.57824865     0.08700
H860        H  0.33280164  0.54992761  0.57892222     0.12300
H861        H  0.23044633  0.96262172  0.58686974     0.12300
H862        H  0.20975366  0.49589829  0.58911311     0.12000
H863        H  0.21693618  0.54624821  0.58860419     0.12600
H864        H  0.31214754  0.58330813  0.58155863     0.14500
C865        C  0.28125848  0.73006980  0.58248433    -0.05500
C866        C  0.30893875  0.75654511  0.58380297    -0.05400
C867        C  0.31030170  0.78412146  0.58297372    -0.23600
C868        C  0.28395321  0.78554710  0.58108751     0.18600
C869        C  0.25594875  0.75900180  0.58015069     0.15800
C870        C  0.25482676  0.73148062  0.58069648    -0.18600
C871        C  0.22954225  0.76043546  0.57874329    -0.20400
C872        C  0.23086399  0.78801564  0.57824886    -0.13000
C873        C  0.25863297  0.81448285  0.57883585     0.03700
C874        C  0.28511240  0.81306325  0.58022975    -0.25100
H875        H  0.32952946  0.75590870  0.58517466     0.08700
H876        H  0.33193885  0.80431964  0.58381073     0.12300
H877        H  0.23329990  0.71111939  0.57987838     0.12300
H878        H  0.20788095  0.74023870  0.57810882     0.12000
H879        H  0.21024030  0.78866967  0.57724602     0.12600
H880        H  0.30665823  0.83341728  0.58097082     0.14500
C881        C  0.31181376  0.65996563  0.53307134    -0.05500
C882        C  0.29691164  0.66037091  0.51701922    -0.05400
C883        C  0.31017974  0.66340322  0.49972709    -0.23600
C884        C  0.33832134  0.66549268  0.49817653     0.18600
C885        C  0.35319469  0.66420433  0.51415778     0.15800
C886        C  0.34001451  0.66185248  0.53153433    -0.18600
C887        C  0.38084304  0.66509956  0.51241086    -0.20400
C888        C  0.39370297  0.66746103  0.49496351    -0.13000
C889        C  0.37946861  0.66979864  0.47913278     0.03700
C890        C  0.35174055  0.66870136  0.48087187    -0.25100
H891        H  0.27517711  0.65878885  0.51786955     0.08700
H892        H  0.29839105  0.66405584  0.48754629     0.12300
H893        H  0.35148687  0.66103585  0.54383630     0.12300
H894        H  0.39242582  0.66383723  0.52451787     0.12000
H895        H  0.41492660  0.66799463  0.49385229     0.12600
H896        H  0.34027413  0.66977900  0.46862952     0.14500
C897        C  0.24287586  0.55178028  0.76489739    -0.05500
C898        C  0.21408490  0.52734398  0.76823735    -0.05400
C899        C  0.20922397  0.49823473  0.76863447    -0.23600
C900        C  0.23306716  0.49291300  0.76574024     0.18600
C901        C  0.26225629  0.51740973  0.76302566     0.15800
C902        C  0.26696526  0.54657208  0.76261166    -0.18600
C903        C  0.28624033  0.51232835  0.76038199    -0.20400
C904        C  0.28115543  0.98319216  0.75992021    -0.13000
C905        C  0.25217631  0.95851591  0.76215490     0.03700
C906        C  0.22804664  0.96352440  0.76515235    -0.25100
H907        H  0.19508278  0.53063906  0.77010124     0.08700
H908        H  0.18671623  0.47985554  0.77089167     0.12300
H909        H  0.28928702  0.56512842  0.76007116     0.12300
H910        H  0.30876530  0.53079453  0.75831123     0.12000
H911        H  0.30014070  0.98005187  0.75747526     0.12600
H912        H  0.20562729  0.94472808  0.76696189     0.14500
C913        C  0.23936499  0.79871456  0.74533178    -0.05500
C914        C  0.21243364  0.77292583  0.74062350    -0.05400
C915        C  0.21116293  0.74536208  0.73928129    -0.23600
C916        C  0.23682923  0.74317938  0.74259571     0.18600
C917        C  0.26430220  0.76918541  0.74656443     0.15800
C918        C  0.26538307  0.79670221  0.74789335    -0.18600
C919        C  0.29007294  0.76712529  0.74967569    -0.20400
C920        C  0.28841120  0.73936636  0.74956564    -0.13000
C921        C  0.26093113  0.71324359  0.74649553     0.03700
C922        C  0.23530920  0.71536615  0.74262246    -0.25100
H923        H  0.19216951  0.77392107  0.73846444     0.08700
H924        H  0.18996730  0.72566315  0.73606277     0.12300
H925        H  0.28641459  0.81646146  0.75134687     0.12300
H926        H  0.31134170  0.78689259  0.75266226     0.12000
H927        H  0.30834585  0.73821230  0.75268814     0.12600
H928        H  0.21403009  0.69530068  0.74012673     0.14500
C929        C  0.23538912  0.61059562  0.70256343    -0.05500
C930        C  0.25170016  0.59858108  0.69430229    -0.05400
C931        C  0.25533037  0.59927225  0.67527115    -0.23600
C932        C  0.24299254  0.61236897  0.66416791     0.18600
C933        C  0.22456617  0.62253951  0.67208024     0.15800
C934        C  0.22055307  0.62127790  0.69138363    -0.18600
C935        C  0.21233861  0.63560234  0.66062516    -0.20400
C936        C  0.21980115  0.64009384  0.64180060    -0.13000
C937        C  0.23975264  0.63181271  0.63435479     0.03700
C938        C  0.25042185  0.61710761  0.64546176    -0.25100
H939        H  0.26331711  0.59035629  0.70274078     0.08700
H940        H  0.26925160  0.59114224  0.66935320     0.12300
H941        H  0.20833482  0.63099565  0.69773395     0.12300
H942        H  0.19799735  0.64336048  0.66634720     0.12000
H943        H  0.21127429  0.65134041  0.63331870     0.12600
H944        H  0.26554609  0.61035617  0.63962531     0.14500
C945        C  0.21587985  0.84909896  0.80665209    -0.05500
C946        C  0.23241596  0.86517973  0.82212411    -0.05400
C947        C  0.22192604  0.85483347  0.83991833    -0.23600
C948        C  0.19504567  0.82786645  0.84253619     0.18600
C949        C  0.17861553  0.81096061  0.82710002     0.15800
C950        C  0.18892301  0.82191949  0.80924065    -0.18600
C951        C  0.15219535  0.78348702  0.82985981    -0.20400
C952        C  0.14187133  0.77316054  0.84776986    -0.13000
C953        C  0.15750664  0.79045641  0.86313496     0.03700
C954        C  0.18424851  0.81766310  0.86035751    -0.25100
H955        H  0.25315129  0.88609010  0.82044442     0.08700
H956        H  0.23484130  0.86795357  0.85165121     0.12300
H957        H  0.17618324  0.80915340  0.79734979     0.12300
H958        H  0.13941926  0.77010322  0.81817083     0.12000
H959        H  0.12124190  0.75220704  0.84960390     0.12600
H960        H  0.19671128  0.83100991  0.87215978     0.14500
C961        C  0.14344032  0.88156810  0.19719758    -0.05500
C962        C  0.14013316  0.89507857  0.18133859    -0.05400
C963        C  0.14064817  0.88389992  0.16374908    -0.23600
C964        C  0.14383651  0.85861766  0.16172601     0.18600
C965        C  0.14600870  0.84418134  0.17761986     0.15800
C966        C  0.14617488  0.85593796  0.19517994    -0.18600
C967        C  0.14798171  0.81822515  0.17567706    -0.20400
C968        C  0.14799078  0.80674485  0.15814087    -0.13000
C969        C  0.14683152  0.82141309  0.14220818     0.03700
C970        C  0.14476364  0.84742810  0.14412750    -0.25100
H971        H  0.13793408  0.91473278  0.18252899     0.08700
H972        H  0.13863589  0.89508696  0.15171657     0.12300
H973        H  0.14827227  0.84500215  0.20733054     0.12300
H974        H  0.14938794  0.80671599  0.18773500     0.12000
H975        H  0.14935790  0.78661370  0.15701074     0.12600
H976        H  0.14324247  0.85859421  0.13191939     0.14500
C977        C  0.11051245  0.75635729  0.97000868    -0.05500
C978        C  0.10034022  0.77438244  0.97808890    -0.05400
C979        C  0.10080162  0.77805154  0.99712220    -0.23600
C980        C  0.11170546  0.76392707  0.00850194     0.18600
C981        C  0.11988024  0.74384999  0.00080788     0.15800
C982        C  0.11898001  0.73992284  0.98145703    -0.18600
C983        C  0.13041339  0.72957423  0.01258512    -0.20400
C984        C  0.13428349  0.73640786  0.03153205    -0.13000
C985        C  0.12808247  0.75789097  0.03882561     0.03700
C986        C  0.11598869  0.77085366  0.02733039    -0.25100
H987        H  0.09351184  0.78702402  0.96952840     0.08700
H988        H  0.09404694  0.79314737  0.00286106     0.12300
H989        H  0.12704325  0.72612384  0.97532584     0.12300
H990        H  0.13653608  0.71388656  0.00706533     0.12000
H991        H  0.14335392  0.72597659  0.04029386     0.12600
H992        H  0.11065581  0.78705733  0.03302030     0.14500
C993        C  0.45575711  0.76807177  0.90230027    -0.05500
C994        C  0.48038424  0.79606384  0.89781299    -0.05400
C995        C  0.00941968  0.80045219  0.89759767    -0.23600
C996        C  0.01439575  0.77696131  0.90184154     0.18600
C997        C  0.98968180  0.74841408  0.90563074     0.15800
C998        C  0.46053355  0.74413194  0.90575283    -0.18600
C999        C  0.99459537  0.72480536  0.90962270    -0.20400
C1000       C  0.02373243  0.72960542  0.91038123    -0.13000
C1001       C  0.04851431  0.75814725  0.90733384     0.03700
C1002       C  0.04367589  0.78169709  0.90280658    -0.25100
H1003       H  0.47733081  0.81487151  0.89499096     0.08700
H1004       H  0.02803001  0.82240591  0.89449073     0.12300
H1005       H  0.44173627  0.72241098  0.90912714     0.12300
H1006       H  0.97595100  0.70275295  0.91247708     0.12000
H1007       H  0.02689872  0.71108261  0.91390745     0.12600
H1008       H  0.06264165  0.80371012  0.90028042     0.14500
C1009       C  0.29656374  0.75664461  0.92079575    -0.05500
C1010       C  0.27050514  0.72935960  0.92429848    -0.05400
C1011       C  0.24304016  0.72816009  0.92664817    -0.23600
C1012       C  0.24130540  0.75425935  0.92557938     0.18600
C1013       C  0.26757946  0.78198552  0.92277655     0.15800
C1014       C  0.29504457  0.78299518  0.92041231    -0.18600
C1015       C  0.26576740  0.80808486  0.92181499    -0.20400
C1016       C  0.23791290  0.80652191  0.92271251    -0.13000
C1017       C  0.21160499  0.77885446  0.92455926     0.03700
C1018       C  0.21356752  0.75291921  0.92655448    -0.25100
H1019       H  0.27122072  0.70884065  0.92475381     0.08700
H1020       H  0.22307385  0.70676165  0.92888664     0.12300
H1021       H  0.31511821  0.80422882  0.91793049     0.12300
H1022       H  0.28575136  0.82954149  0.91978057     0.12000
H1023       H  0.23683501  0.82672747  0.92109592     0.12600
H1024       H  0.19335391  0.73147307  0.92814597     0.14500
C1025       C  0.27770930  0.66460425  0.80741737    -0.05500
C1026       C  0.26238201  0.65076188  0.82368484    -0.05400
C1027       C  0.27473799  0.66343071  0.84087260    -0.23600
C1028       C  0.30226528  0.69032435  0.84192414     0.18600
C1029       C  0.31697033  0.70506152  0.82555064     0.15800
C1030       C  0.30470860  0.69201326  0.80848094    -0.18600
C1031       C  0.34396425  0.73238332  0.82649551    -0.20400
C1032       C  0.35671746  0.74479711  0.84358103    -0.13000
C1033       C  0.34297683  0.72975502  0.85991294     0.03700
C1034       C  0.31556700  0.70261755  0.85900371    -0.25100
H1035       H  0.24154138  0.62971424  0.82311093     0.08700
H1036       H  0.26302008  0.65201305  0.85332539     0.12300
H1037       H  0.31639100  0.70309860  0.79592308     0.12300
H1038       H  0.35532686  0.74402280  0.81401345     0.12000
H1039       H  0.37768653  0.76573493  0.84403130     0.12600
H1040       H  0.30454191  0.69114622  0.87161444     0.14500
C1041       C  0.39792956  0.69596280  0.19783735    -0.05500
C1042       C  0.40452455  0.68242452  0.18316671    -0.05400
C1043       C  0.40416779  0.69121619  0.16496993    -0.23600
C1044       C  0.39756292  0.71390445  0.16124062     0.18600
C1045       C  0.39262208  0.72880276  0.17599706     0.15800
C1046       C  0.39270656  0.71964850  0.19414197    -0.18600
C1047       C  0.38692384  0.75210950  0.17233419    -0.20400
C1048       C  0.38500726  0.75987793  0.15414282    -0.13000
C1049       C  0.38820729  0.74407733  0.13942069     0.03700
C1050       C  0.39505108  0.72147496  0.14303844    -0.25100
H1051       H  0.40889089  0.66437496  0.18571795     0.08700
H1052       H  0.40842717  0.67985750  0.15379871     0.12300
H1053       H  0.38820710  0.73069807  0.20540933     0.12300
H1054       H  0.38339557  0.76394400  0.18353260     0.12000
H1055       H  0.37989483  0.77742461  0.15157112     0.12600
H1056       H  0.39808964  0.70958049  0.13165356     0.14500
C1057       C  0.45469974  0.75743947  0.07955067    -0.05500
C1058       C  0.45503998  0.73094532  0.08288028    -0.05400
C1059       C  0.48222626  0.73136648  0.08462207    -0.23600
C1060       C  0.00943470  0.75832640  0.08285303     0.18600
C1061       C  0.00920289  0.78485350  0.07876568     0.15800
C1062       C  0.48183431  0.78413117  0.07701626    -0.18600
C1063       C  0.03629316  0.81172201  0.07700162    -0.20400
C1064       C  0.06343595  0.81249877  0.07973080    -0.13000
C1065       C  0.06390724  0.78644032  0.08435071     0.03700
C1066       C  0.03679074  0.75931511  0.08568901    -0.25100
H1067       H  0.43432802  0.71016988  0.08498329     0.08700
H1068       H  0.48200167  0.71082391  0.08775693     0.12300
H1069       H  0.48169860  0.80463846  0.07432121     0.12300
H1070       H  0.03648212  0.83221163  0.07374685     0.12000
H1071       H  0.08407059  0.83359749  0.07843546     0.12600
H1072       H  0.03694502  0.73900058  0.08898775     0.14500
C1073       C  0.22049169  0.78893142  0.09376533    -0.05500
C1074       C  0.24764029  0.81489232  0.08962342    -0.05400
C1075       C  0.27451154  0.81444016  0.08901470    -0.23600
C1076       C  0.27473434  0.78793993  0.09237133     0.18600
C1077       C  0.24760810  0.76164911  0.09653058     0.15800
C1078       C  0.22071193  0.76235540  0.09734104    -0.18600
C1079       C  0.24781121  0.73501763  0.09950851    -0.20400
C1080       C  0.27457309  0.73437060  0.09816932    -0.13000
C1081       C  0.30166715  0.76041402  0.09408558     0.03700
C1082       C  0.30157026  0.78721641  0.09135315    -0.25100
H1083       H  0.24810217  0.83559513  0.08673070     0.08700
H1084       H  0.29508636  0.83476856  0.08571934     0.12300
H1085       H  0.19990544  0.74208483  0.10037444     0.12300
H1086       H  0.22722432  0.71461666  0.10266460     0.12000
H1087       H  0.27407393  0.71346400  0.10031425     0.12600
H1088       H  0.32227142  0.80739768  0.08799363     0.14500
C1089       C  0.37154926  0.77014387  0.03210001    -0.05500
C1090       C  0.34603909  0.74778174  0.02312850    -0.05400
C1091       C  0.34403766  0.74699524  0.00404688    -0.23600
C1092       C  0.36769718  0.76839284  0.99350364     0.18600
C1093       C  0.39302440  0.79203919  0.00215547     0.15800
C1094       C  0.39468619  0.79300425  0.02160965    -0.18600
C1095       C  0.41651879  0.81326800  0.99107982    -0.20400
C1096       C  0.41539318  0.81006271  0.97173958    -0.13000
C1097       C  0.39084091  0.78551087  0.96343119     0.03700
C1098       C  0.36676992  0.76549995  0.97439148    -0.25100
H1099       H  0.32783606  0.73022975  0.03091875     0.08700
H1100       H  0.32441517  0.72894052  0.99751130     0.12300
H1101       H  0.41447633  0.81030936  0.02845128     0.12300
H1102       H  0.43606300  0.83173267  0.99737901     0.12000
H1103       H  0.43405115  0.82588975  0.96342400     0.12600
H1104       H  0.34742796  0.74686113  0.96797480     0.14500
O1105       O  0.82950998  0.23517124  0.08954046    -0.72000
O1106       O  0.90148315  0.23454709  0.07887216    -0.72300
O1107       O  0.87014504  0.22833654  0.10917492    -0.72100
O1108       O  0.86124178  0.24112775  0.05900464    -0.72100
O1109       O  0.88965558  0.28893146  0.06261809    -0.72100
O1110       O  0.89275119  0.27605585  0.11427972    -0.72100
O1111       O  0.92703662  0.28194373  0.08497588    -0.72000
O1112       O  0.85491719  0.28340030  0.09187471    -0.72200
V1113       V  0.86600442  0.23574757  0.08420783     1.35200
V1114       V  0.89055521  0.28172179  0.08839255     1.35200
C1115       C  0.82985142  0.25955671  0.09190635     0.77200
C1116       C  0.92657993  0.25801762  0.08084568     0.77300
C1117       C  0.88338695  0.24989262  0.12023841     0.77100
C1118       C  0.87440296  0.26691446  0.05207863     0.77100
O1119       O  0.90356031  0.24043267  0.91012353    -0.72000
O1120       O  0.82863597  0.23557997  0.92001150    -0.72300
O1121       O  0.85271549  0.22388974  0.89094432    -0.72100
O1122       O  0.87805474  0.25107566  0.93928059    -0.72100
O1123       O  0.89574565  0.29710991  0.93095706    -0.72100
O1124       O  0.87187157  0.26948803  0.88136006    -0.72100
O1125       O  0.84701937  0.28110287  0.91047863    -0.72000
O1126       O  0.92182666  0.28646531  0.90171926    -0.72200
V1127       V  0.86630475  0.23868576  0.91486654     1.35200
V1128       V  0.88392844  0.28268483  0.90622058     1.35200
C1129       C  0.92571318  0.26463936  0.90460934     0.77200
C1130       C  0.82522522  0.25773293  0.91698485     0.77300
C1131       C  0.85681811  0.24172286  0.87803958     0.77100
C1132       C  0.88925135  0.27813821  0.94367157     0.77100
O1133       O  0.69102812  0.31182300  0.08775547    -0.72000
O1134       O  0.61711336  0.31059257  0.08330513    -0.72300
O1135       O  0.65787812  0.32654512  0.10996154    -0.72100
O1136       O  0.64915384  0.29622512  0.06125670    -0.72100
O1137       O  0.62627893  0.25082529  0.07158702    -0.72100
O1138       O  0.63462572  0.28143000  0.12068256    -0.72100
O1139       O  0.59359658  0.26521907  0.09360506    -0.72000
O1140       O  0.66764423  0.26667045  0.09838181    -0.72200
V1141       V  0.65352860  0.31040176  0.08583105     1.35200
V1142       V  0.63108752  0.26693062  0.09594733     1.35200
C1143       C  0.69193577  0.28923450  0.09344796     0.77200
C1144       C  0.59270914  0.28746851  0.08729491     0.77300
C1145       C  0.64670931  0.30923988  0.12357067     0.77100
C1146       C  0.63526196  0.26852891  0.05803817     0.77100
O1147       O  0.60136855  0.28887440  0.91268359    -0.72000
O1148       O  0.67779428  0.29801353  0.92410623    -0.72300
O1149       O  0.65157508  0.30224327  0.89368380    -0.72100
O1150       O  0.62819206  0.28579115  0.94336952    -0.72100
O1151       O  0.61321907  0.23884683  0.93932443    -0.72100
O1152       O  0.63149457  0.25499799  0.88765211    -0.72100
O1153       O  0.66013408  0.25124795  0.91749013    -0.72000
O1154       O  0.58349294  0.24125114  0.90948041    -0.72200
V1155       V  0.63931709  0.29277789  0.91837411     1.35200
V1156       V  0.62234396  0.24743477  0.91353583     1.35200
C1157       C  0.57915546  0.26313240  0.90972641     0.77200
C1158       C  0.68198337  0.27604618  0.92222304     0.77300
C1159       C  0.64601188  0.28185906  0.88216993     0.77100
C1160       C  0.61738522  0.26001905  0.95004560     0.77100
O1161       O  0.77253385  0.10417767  0.75825157    -0.72000
O1162       O  0.78043610  0.17981783  0.74733336    -0.72300
O1163       O  0.78701221  0.15450918  0.77728710    -0.72100
O1164       O  0.76707534  0.13020028  0.72807222    -0.72100
O1165       O  0.71984843  0.11349229  0.73363528    -0.72100
O1166       O  0.74006566  0.13623171  0.78440015    -0.72100
O1167       O  0.73340880  0.16192308  0.75406221    -0.72000
O1168       O  0.72528078  0.08655485  0.76401255    -0.72200
V1169       V  0.77577447  0.14173332  0.75287337     1.35200
V1170       V  0.73050407  0.12477097  0.75896179     1.35200
C1171       C  0.74722859  0.08218864  0.76251865     0.77200
C1172       C  0.75818231  0.18375532  0.74915531     0.77300
C1173       C  0.76746499  0.15067985  0.78910277     0.77100
C1174       C  0.74051992  0.11815588  0.72228392     0.77100
O1175       O  0.80051676  0.19751892  0.58906958    -0.72000
O1176       O  0.79311496  0.12073931  0.58963611    -0.72300
O1177       O  0.81422129  0.16553151  0.56565307    -0.72100
O1178       O  0.77996005  0.15203821  0.61325824    -0.72100
O1179       O  0.73542850  0.13429682  0.60155442    -0.72100
O1180       O  0.76991746  0.14580957  0.55339728    -0.72100
O1181       O  0.74812085  0.10182580  0.57845400    -0.72000
O1182       O  0.75642042  0.17822788  0.57655610    -0.72200
V1183       V  0.79609019  0.15873686  0.58918300     1.35200
V1184       V  0.75337431  0.14050432  0.57766452     1.35200
C1185       C  0.77950059  0.20081937  0.58270892     0.77200
C1186       C  0.76903512  0.09818451  0.58437952     0.77300
C1187       C  0.79800763  0.15711202  0.55141544     0.77100
C1188       C  0.75201409  0.14016114  0.61558965     0.77100
O1189       O  0.72274923  0.40547133  0.75649328    -0.72000
O1190       O  0.71843206  0.33120365  0.74490249    -0.72300
O1191       O  0.70756889  0.35434607  0.77499801    -0.72100
O1192       O  0.73263838  0.38156715  0.72638583    -0.72100
O1193       O  0.77894632  0.39662490  0.73361263    -0.72100
O1194       O  0.75400855  0.37614032  0.78387411    -0.72100
O1195       O  0.76379461  0.34918064  0.75515532    -0.72000
O1196       O  0.77014058  0.42434683  0.76230078    -0.72200
V1197       V  0.72120350  0.36850853  0.75086324     1.35200
V1198       V  0.76583221  0.38625069  0.75865099     1.35200
C1199       C  0.74785096  0.42804240  0.76049415     0.77200
C1200       C  0.74044938  0.32751184  0.74845171     0.77300
C1201       C  0.72634727  0.36050196  0.78777600     0.77100
C1202       C  0.75974328  0.39320032  0.72154071     0.77100
O1203       O  0.73843739  0.34695131  0.58283872    -0.72000
O1204       O  0.74792315  0.42457042  0.58535342    -0.72300
O1205       O  0.73127460  0.38311709  0.55929158    -0.72100
O1206       O  0.75409613  0.38889303  0.60903170    -0.72100
O1207       O  0.80084567  0.40731638  0.60133267    -0.72100
O1208       O  0.77766551  0.40273251  0.55052324    -0.72100
O1209       O  0.79465392  0.44346579  0.57752136    -0.72000
O1210       O  0.78495160  0.36659782  0.57430845    -0.72200
V1211       V  0.74385997  0.38611378  0.58394682     1.35200
V1212       V  0.78863235  0.40454818  0.57602277     1.35200
C1213       C  0.76050267  0.34375990  0.57849100     0.77200
C1214       C  0.77307927  0.44725078  0.58185910     0.77300
C1215       C  0.75037637  0.39324774  0.54648933     0.77100
C1216       C  0.78104994  0.39958719  0.61382685     0.77100
O1217       O  0.69486441  0.44167797  0.24637739    -0.72000
O1218       O  0.62653091  0.36652058  0.25909073    -0.72300
O1219       O  0.65902234  0.38955590  0.22845355    -0.72100
O1220       O  0.66302047  0.41787702  0.27699087    -0.72100
O1221       O  0.63103093  0.43211825  0.27032401    -0.72100
O1222       O  0.63213812  0.40893670  0.21996241    -0.72100
O1223       O  0.59777576  0.38331997  0.24979925    -0.72000
O1224       O  0.66495150  0.45878033  0.24059995    -0.72200
V1225       V  0.66032357  0.40424130  0.25254123     1.35200
V1226       V  0.63206465  0.42047883  0.24523707     1.35200
C1227       C  0.69133308  0.46353157  0.24230372     0.77200
C1228       C  0.60034074  0.36222536  0.25635000     0.77300
C1229       C  0.64491962  0.39408314  0.21589243     0.77100
C1230       C  0.64767208  0.42940989  0.28209018     0.77100
O1231       O  0.63202824  0.36956265  0.41917462    -0.72000
O1232       O  0.70735495  0.44046586  0.41441691    -0.72300
O1233       O  0.68077826  0.39971559  0.44074888    -0.72100
O1234       O  0.65957949  0.41065640  0.39265180    -0.72100
O1235       O  0.64027795  0.43644870  0.40366302    -0.72100
O1236       O  0.66103185  0.42471295  0.45227725    -0.72100
O1237       O  0.68791550  0.46583780  0.42584007    -0.72000
O1238       O  0.61301965  0.39574163  0.42997205    -0.72200
V1239       V  0.66946139  0.40551138  0.41697621     1.35200
V1240       V  0.65092883  0.43015020  0.42777887     1.35200
C1241       C  0.60953955  0.37088556  0.42498476     0.77200
C1242       C  0.71033998  0.46523638  0.41934341     0.77300
C1243       C  0.67515050  0.41077045  0.45469653     0.77100
C1244       C  0.64674785  0.42561749  0.38989481     0.77100
O1245       O  0.84236724  0.14131624  0.24770779    -0.72000
O1246       O  0.91149327  0.21663370  0.25872835    -0.72300
O1247       O  0.87996937  0.19057325  0.22840195    -0.72100
O1248       O  0.87364240  0.16820605  0.27821904    -0.72100
O1249       O  0.90359055  0.15064438  0.27372402    -0.72100
O1250       O  0.90756093  0.17073212  0.22254325    -0.72100
O1251       O  0.93978471  0.19756373  0.25288884    -0.72000
O1252       O  0.87141404  0.12272865  0.24327776    -0.72200
V1253       V  0.87737857  0.17874214  0.25316076     1.35200
V1254       V  0.90494523  0.16066964  0.24817424     1.35200
C1255       C  0.84524834  0.11896338  0.24387806     0.77200
C1256       C  0.93750965  0.21986402  0.25742872     0.77300
C1257       C  0.89511680  0.18511476  0.21699286     0.77100
C1258       C  0.88794495  0.15644322  0.28469033     0.77100
O1259       O  0.93496631  0.21933290  0.42585384    -0.72000
O1260       O  0.85732684  0.15170003  0.42106991    -0.72300
O1261       O  0.88813357  0.18782938  0.44862545    -0.72100
O1262       O  0.90282933  0.18269075  0.39821619    -0.72100
O1263       O  0.92254666  0.15519131  0.40439490    -0.72100
O1264       O  0.90515408  0.15827463  0.45553430    -0.72100
O1265       O  0.87615130  0.12325486  0.42672795    -0.72000
O1266       O  0.95276847  0.19062347  0.43319635    -0.72200
V1267       V  0.89642553  0.18502523  0.42360182     1.35200
V1268       V  0.91397007  0.15751045  0.42989639     1.35200
C1269       C  0.95715784  0.21645282  0.43019075     0.77200
C1270       C  0.85373221  0.12588170  0.42286590     0.77300
C1271       C  0.89221145  0.17252640  0.46050295     0.77100
C1272       C  0.91382876  0.16713683  0.39257431     0.77100
C1273       C  0.88663720  0.15114633  0.30475711    -0.05500
C1274       C  0.86182054  0.14831601  0.31461206    -0.05400
C1275       C  0.86196012  0.14913269  0.33377463    -0.23600
C1276       C  0.88703734  0.15299634  0.34349787     0.18600
C1277       C  0.91159642  0.15422768  0.33394688     0.15800
C1278       C  0.91115957  0.15304107  0.31449281    -0.18600
C1279       C  0.93647887  0.15783999  0.34407673    -0.20400
C1280       C  0.93730507  0.16118236  0.36336482    -0.13000
C1281       C  0.91346829  0.16141784  0.37262482     0.03700
C1282       C  0.88822347  0.15668302  0.36261826    -0.25100
H1283       H  0.84261222  0.14659538  0.30742587     0.08700
H1284       H  0.84286464  0.14783156  0.34096617     0.12300
H1285       H  0.93046503  0.15541795  0.30699591     0.12300
H1286       H  0.95548142  0.15867583  0.33706639     0.12000
H1287       H  0.95685615  0.16457878  0.37093042     0.12600
H1288       H  0.86948209  0.15625709  0.36977926     0.14500
C1289       C  0.82426539  0.09918419  0.42071500    -0.05500
C1290       C  0.79789966  0.10061333  0.42251818    -0.05400
C1291       C  0.77003789  0.07454117  0.42200038    -0.23600
C1292       C  0.76834357  0.04687735  0.41955466     0.18600
C1293       C  0.79483472  0.04551996  0.41704007     0.15800
C1294       C  0.82256063  0.07165537  0.41763206    -0.18600
C1295       C  0.79324579  0.01798587  0.41439434    -0.20400
C1296       C  0.76560105  0.49180681  0.41474787    -0.13000
C1297       C  0.73925482  0.49285856  0.41780984     0.03700
C1298       C  0.74070587  0.52050099  0.41997083    -0.25100
H1299       H  0.79887548  0.12173078  0.42487451     0.08700
H1300       H  0.74989691  0.07594572  0.42384057     0.12300
H1301       H  0.84288560  0.07049528  0.41598339     0.12300
H1302       H  0.81340766  0.01667876  0.41236494     0.12000
H1303       H  0.76489314  0.47069940  0.41302606     0.12600
H1304       H  0.72038614  0.52148355  0.42216803     0.14500
C1305       C  0.57951903  0.34459355  0.42540158    -0.05500
C1306       C  0.55474306  0.34801666  0.42154109    -0.05400
C1307       C  0.52587197  0.32356815  0.42185647    -0.23600
C1308       C  0.52131841  0.29539876  0.42636242     0.18600
C1309       C  0.54612073  0.29173833  0.43046371     0.15800
C1310       C  0.57522277  0.31638909  0.42971921    -0.18600
C1311       C  0.04133276  0.26346925  0.43521051    -0.20400
C1312       C  0.01225647  0.23903366  0.43557440    -0.13000
C1313       C  0.98760823  0.24247078  0.43111792     0.03700
C1314       C  0.99236541  0.27078056  0.42664090    -0.25100
H1315       H  0.55778821  0.36965850  0.41803704     0.08700
H1316       H  0.50711470  0.32671540  0.41864468     0.12300
H1317       H  0.59437328  0.31380267  0.43281056     0.12300
H1318       H  0.55997871  0.26029113  0.43853230     0.12000
H1319       H  0.00910882  0.21736669  0.43908618     0.12600
H1320       H  0.97353047  0.27368904  0.42318310     0.14500
C1321       C  0.81907380  0.08876620  0.24070611    -0.05500
C1322       C  0.82380857  0.06485354  0.23657499    -0.05400
C1323       C  0.79978327  0.03572801  0.23523915    -0.23600
C1324       C  0.77040408  0.02978666  0.23795465     0.18600
C1325       C  0.76517546  0.05373775  0.24133457     0.15800
C1326       C  0.78950757  0.08306365  0.24269811    -0.18600
C1327       C  0.73572810  0.04781727  0.24374256    -0.20400
C1328       C  0.71183653  0.51850912  0.24332198    -0.13000
C1329       C  0.71686151  0.49440584  0.24071277     0.03700
C1330       C  0.74627071  0.50027416  0.23781841    -0.25100
H1331       H  0.84627512  0.06852996  0.23478704     0.08700
H1332       H  0.80426502  0.01776054  0.23243590     0.12300
H1333       H  0.78546084  0.10124953  0.24577826     0.12300
H1334       H  0.73117724  0.06581064  0.24627254     0.12000
H1335       H  0.68940685  0.51464680  0.24568173     0.12600
H1336       H  0.75040902  0.48191270  0.23570949     0.14500
C1337       C  0.57290788  0.33345731  0.26015336    -0.05500
C1338       C  0.57400094  0.30727990  0.26315120    -0.05400
C1339       C  0.54744222  0.27978474  0.26455016    -0.23600
C1340       C  0.51946625  0.27811989  0.26297019     0.18600
C1341       C  0.51821547  0.30452792  0.26085847     0.15800
C1342       C  0.54485107  0.33191506  0.25955852    -0.18600
C1343       C  0.99033735  0.30304060  0.25932850    -0.20400
C1344       C  0.96388248  0.27547849  0.25912508    -0.13000
C1345       C  0.96490031  0.24899395  0.26033498     0.03700
C1346       C  0.99277382  0.25052368  0.26273160    -0.25100
H1347       H  0.59530898  0.30793291  0.26376475     0.08700
H1348       H  0.54878865  0.25973182  0.26633201     0.12300
H1349       H  0.54365708  0.35201123  0.25749419     0.12300
H1350       H  0.98905137  0.32316612  0.25777767     0.12000
H1351       H  0.94273500  0.27484488  0.25725349     0.12600
H1352       H  0.99378931  0.23018270  0.26383734     0.14500
C1353       C  0.65028431  0.43941133  0.30140149    -0.05500
C1354       C  0.67914720  0.45727353  0.30866637    -0.05400
C1355       C  0.68366102  0.46111488  0.32766020    -0.23600
C1356       C  0.65938821  0.44656519  0.33977185     0.18600
C1357       C  0.62992968  0.42992740  0.33265906     0.15800
C1358       C  0.62548953  0.42674578  0.31339475    -0.18600
C1359       C  0.60579350  0.41512432  0.34497388    -0.20400
C1360       C  0.61100648  0.41535595  0.36397354    -0.13000
C1361       C  0.64035684  0.43044154  0.37086835     0.03700
C1362       C  0.66435518  0.44671499  0.35879441    -0.25100
H1363       H  0.69847083  0.46703874  0.29959559     0.08700
H1364       H  0.70632458  0.47409281  0.33288302     0.12300
H1365       H  0.60323421  0.41249605  0.30785127     0.12300
H1366       H  0.58306394  0.40228498  0.33985022     0.12000
H1367       H  0.59231691  0.40244320  0.37315440     0.12600
H1368       H  0.68705479  0.45818131  0.36414096     0.14500
C1369       C  0.74040550  0.39541651  0.52771760    -0.05500
C1370       C  0.75507852  0.39373646  0.51181465    -0.05400
C1371       C  0.74473284  0.39567078  0.49427824    -0.23600
C1372       C  0.72004983  0.40008187  0.49242152     0.18600
C1373       C  0.70571932  0.40260750  0.50838835     0.15800
C1374       C  0.71570741  0.39985078  0.52584349    -0.18600
C1375       C  0.68177751  0.40809597  0.50665626    -0.20400
C1376       C  0.67198217  0.41098335  0.48922399    -0.13000
C1377       C  0.68554067  0.40783692  0.47320631     0.03700
C1378       C  0.70959670  0.40230409  0.47493006    -0.25100
H1379       H  0.77418967  0.39047758  0.51295422     0.08700
H1380       H  0.75614412  0.39390688  0.48217023     0.12300
H1381       H  0.70455874  0.40175955  0.53805989     0.12300
H1382       H  0.67071625  0.41031609  0.51880251     0.12000
H1383       H  0.65354482  0.41532418  0.48825712     0.12600
H1384       H  0.72053979  0.40026696  0.46266100     0.14500
C1385       C  0.76772105  0.40274762  0.70220668    -0.05500
C1386       C  0.75222573  0.41501120  0.69336155    -0.05400
C1387       C  0.75488809  0.41992319  0.67444915    -0.23600
C1388       C  0.77269686  0.41211472  0.66390796     0.18600
C1389       C  0.78967879  0.40105761  0.67259509     0.15800
C1390       C  0.78742291  0.39679943  0.69190827    -0.18600
C1391       C  0.80714712  0.39301655  0.66160150    -0.20400
C1392       C  0.80627056  0.39427254  0.64223142    -0.13000
C1393       C  0.78796882  0.40363696  0.63372055     0.03700
C1394       C  0.77222279  0.41355539  0.64468949    -0.25100
H1395       H  0.73717770  0.41995349  0.70108084     0.08700
H1396       H  0.74192591  0.42859491  0.66795129     0.12300
H1397       H  0.79926810  0.38711424  0.69865228     0.12300
H1398       H  0.82043189  0.38458813  0.66793119     0.12000
H1399       H  0.81847143  0.38640872  0.63395784     0.12600
H1400       H  0.75820726  0.42099633  0.63815003     0.14500
C1401       C  0.77737819  0.47748889  0.58260572    -0.05500
C1402       C  0.80617641  0.50237362  0.58035789    -0.05400
C1403       C  0.81039109  0.03108221  0.58070396    -0.23600
C1404       C  0.78588925  0.03538913  0.58321747     0.18600
C1405       C  0.75680496  0.01047573  0.58542788     0.15800
C1406       C  0.75277524  0.48169979  0.58517660    -0.18600
C1407       C  0.73218963  0.01473251  0.58751140    -0.20400
C1408       C  0.73630185  0.04341400  0.58718323    -0.13000
C1409       C  0.76511998  0.06821879  0.58510987     0.03700
C1410       C  0.78990983  0.06415624  0.58331987    -0.25100
H1411       H  0.82549202  0.49963947  0.57830952     0.08700
H1412       H  0.83278700  0.04990305  0.57888620     0.12300
H1413       H  0.73046129  0.46262688  0.58677952     0.12300
H1414       H  0.70976649  0.99590242  0.58919695     0.12000
H1415       H  0.71695393  0.04625452  0.58867203     0.12600
H1416       H  0.81214530  0.08329284  0.58153660     0.14500
C1417       C  0.78125432  0.23005904  0.58246889    -0.05500
C1418       C  0.80893181  0.25653581  0.58379532    -0.05400
C1419       C  0.81029134  0.28411065  0.58297008    -0.23600
C1420       C  0.78394213  0.28553370  0.58108007     0.18600
C1421       C  0.75593962  0.25898724  0.58013632     0.15800
C1422       C  0.75482109  0.23146701  0.58067791    -0.18600
C1423       C  0.72953229  0.26041944  0.57872603    -0.20400
C1424       C  0.73085204  0.28799929  0.57823324    -0.13000
C1425       C  0.75862000  0.31446726  0.57882442     0.03700
C1426       C  0.78509933  0.31304884  0.58022405    -0.25100
H1427       H  0.82952329  0.25590193  0.58517058     0.08700
H1428       H  0.83192680  0.30430997  0.58381293     0.12300
H1429       H  0.73329602  0.21110454  0.57985459     0.12300
H1430       H  0.70787214  0.24022192  0.57808699     0.12000
H1431       H  0.71022835  0.28865264  0.57722678     0.12600
H1432       H  0.80664412  0.33340353  0.58096960     0.14500
C1433       C  0.81183101  0.15994452  0.53307070    -0.05500
C1434       C  0.79695645  0.16039889  0.51701793    -0.05400
C1435       C  0.81023683  0.16344331  0.49972856    -0.23600
C1436       C  0.83836198  0.16549454  0.49818120     0.18600
C1437       C  0.85320450  0.16415264  0.51416250     0.15800
C1438       C  0.84001346  0.16179014  0.53153673    -0.18600
C1439       C  0.88083383  0.16500746  0.51241785    -0.20400
C1440       C  0.89370610  0.16738256  0.49497295    -0.13000
C1441       C  0.87950470  0.16977505  0.47914270     0.03700
C1442       C  0.85179466  0.16871728  0.48087961    -0.25100
H1443       H  0.77523647  0.15884987  0.51786626     0.08700
H1444       H  0.79847115  0.16413664  0.48754747     0.12300
H1445       H  0.85146315  0.16093496  0.54383924     0.12300
H1446       H  0.89239191  0.16370244  0.52452471     0.12000
H1447       H  0.91491329  0.16788200  0.49386357     0.12600
H1448       H  0.84035076  0.16983460  0.46863748     0.14500
C1449       C  0.74288199  0.05179239  0.76489542    -0.05500
C1450       C  0.71409340  0.02735607  0.76824106    -0.05400
C1451       C  0.70923612  0.99824897  0.76864693    -0.23600
C1452       C  0.73308074  0.99292882  0.76575625     0.18600
C1453       C  0.76226880  0.01742550  0.76303804     0.15800
C1454       C  0.76697423  0.04658679  0.76261471    -0.18600
C1455       C  0.78625401  0.01234388  0.76039944    -0.20400
C1456       C  0.78110877  0.48318565  0.75992686    -0.13000
C1457       C  0.75212402  0.45850621  0.76213314     0.03700
C1458       C  0.72798671  0.46351059  0.76510794    -0.25100
H1459       H  0.69508951  0.03064904  0.77010276     0.08700
H1460       H  0.68672963  0.97986972  0.77090759     0.12300
H1461       H  0.78929466  0.06514350  0.76007127     0.12300
H1462       H  0.80877863  0.03080973  0.75832702     0.12000
H1463       H  0.80010077  0.48004920  0.75750076     0.12600
H1464       H  0.70556293  0.44471206  0.76689591     0.14500
C1465       C  0.73931560  0.29870409  0.74531739    -0.05500
C1466       C  0.71238913  0.27291462  0.74060239    -0.05400
C1467       C  0.71112130  0.24535117  0.73926615    -0.23600
C1468       C  0.73678571  0.24317021  0.74259331     0.18600
C1469       C  0.76425348  0.26917739  0.74656971     0.15800
C1470       C  0.76533129  0.29669274  0.74789262    -0.18600
C1471       C  0.79002312  0.26712100  0.74969355    -0.20400
C1472       C  0.78836624  0.23936476  0.74958569    -0.13000
C1473       C  0.76089185  0.21324065  0.74650617     0.03700
C1474       C  0.73526983  0.21535858  0.74262375    -0.25100
H1475       H  0.69212683  0.27390919  0.73843307     0.08700
H1476       H  0.68992966  0.22565162  0.73604157     0.12300
H1477       H  0.78635904  0.31645214  0.75135172     0.12300
H1478       H  0.81128744  0.28688940  0.75268679     0.12000
H1479       H  0.80829996  0.23821351  0.75271629     0.12600
H1480       H  0.71399508  0.19529141  0.74012137     0.14500
C1481       C  0.73535513  0.11061433  0.70256026    -0.05500
C1482       C  0.75163649  0.09856700  0.69429962    -0.05400
C1483       C  0.75526811  0.09925516  0.67526851    -0.23600
C1484       C  0.74296179  0.11238155  0.66416436     0.18600
C1485       C  0.72456701  0.12259066  0.67207609     0.15800
C1486       C  0.72055281  0.12133328  0.69137962    -0.18600
C1487       C  0.71237143  0.13568364  0.66062013    -0.20400
C1488       C  0.71983292  0.14016256  0.64179500    -0.13000
C1489       C  0.73975195  0.13183887  0.63434919     0.03700
C1490       C  0.75039145  0.11710892  0.64545760    -0.25100
H1491       H  0.76322999  0.09031698  0.70273872     0.08700
H1492       H  0.76916584  0.09109693  0.66935122     0.12300
H1493       H  0.70836018  0.13107877  0.69772953     0.12300
H1494       H  0.69805556  0.14347294  0.66634169     0.12000
H1495       H  0.71133135  0.15143124  0.63331239     0.12600
H1496       H  0.76549270  0.11032776  0.63962153     0.14500
C1497       C  0.71582228  0.34909511  0.80662492    -0.05500
C1498       C  0.73237803  0.36516596  0.82209408    -0.05400
C1499       C  0.72190533  0.35481561  0.83988969    -0.23600
C1500       C  0.69502217  0.32785392  0.84251181     0.18600
C1501       C  0.67856910  0.31095924  0.82707830     0.15800
C1502       C  0.68885963  0.32192288  0.80921739    -0.18600
C1503       C  0.65214535  0.28349056  0.82984250    -0.20400
C1504       C  0.64184148  0.27315833  0.84775451    -0.13000
C1505       C  0.65750134  0.29044347  0.86311739     0.03700
C1506       C  0.68424578  0.31764481  0.86033523    -0.25100
H1507       H  0.75311883  0.38607023  0.82041139     0.08700
H1508       H  0.73483767  0.36792712  0.85162038     0.12300
H1509       H  0.67610497  0.30916402  0.79732866     0.12300
H1510       H  0.63935129  0.27011519  0.81815574     0.12000
H1511       H  0.62120852  0.25220936  0.84959247     0.12600
H1512       H  0.69672649  0.33098337  0.87213559     0.14500
C1513       C  0.64343934  0.38153452  0.19718330    -0.05500
C1514       C  0.64008879  0.39501802  0.18132496    -0.05400
C1515       C  0.64059618  0.38383446  0.16373549    -0.23600
C1516       C  0.64382051  0.35857331  0.16171154     0.18600
C1517       C  0.64603721  0.34416301  0.17760496     0.15800
C1518       C  0.64621056  0.35592505  0.19516479    -0.18600
C1519       C  0.64804645  0.31822665  0.17566199    -0.20400
C1520       C  0.64804758  0.30674070  0.15812615    -0.13000
C1521       C  0.64684476  0.32138437  0.14219336     0.03700
C1522       C  0.64474063  0.34737946  0.14411274    -0.25100
H1523       H  0.63786026  0.41465523  0.18251535     0.08700
H1524       H  0.63854937  0.39500118  0.15170357     0.12300
H1525       H  0.64834164  0.34500885  0.20731453     0.12300
H1526       H  0.64948766  0.30673745  0.18771963     0.12000
H1527       H  0.64944481  0.28662600  0.15699607     0.12600
H1528       H  0.64318714  0.35852660  0.13190472     0.14500
C1529       C  0.61055642  0.25631039  0.96999592    -0.05500
C1530       C  0.60033443  0.27429182  0.97807962    -0.05400
C1531       C  0.60078799  0.27795138  0.99711397    -0.23600
C1532       C  0.61173746  0.26386443  0.00849074     0.18600
C1533       C  0.61997049  0.24383384  0.00079204     0.15800
C1534       C  0.61907511  0.23991348  0.98144087    -0.18600
C1535       C  0.63055410  0.22959828  0.01256494    -0.20400
C1536       C  0.63441288  0.23642552  0.03151273    -0.13000
C1537       C  0.62814818  0.25786147  0.03881197     0.03700
C1538       C  0.61600846  0.27078466  0.02732070    -0.25100
H1539       H  0.59346980  0.28690603  0.96952117     0.08700
H1540       H  0.59399040  0.29301220  0.00285605     0.12300
H1541       H  0.62717961  0.22615092  0.97530647     0.12300
H1542       H  0.63672421  0.21394804  0.00704105     0.12000
H1543       H  0.64352291  0.22602770  0.04027104     0.12600
H1544       H  0.61063094  0.28695428  0.03301488     0.14500
C1545       C  0.95580546  0.26805593  0.90231137    -0.05500
C1546       C  0.98042969  0.29605092  0.89782564    -0.05400
C1547       C  0.50946373  0.30044054  0.89756062    -0.23600
C1548       C  0.51443686  0.27695325  0.90182207     0.18600
C1549       C  0.48972254  0.24841831  0.90563718     0.15800
C1550       C  0.96058837  0.24411945  0.90576260    -0.18600
C1551       C  0.49463126  0.22481200  0.90964657    -0.20400
C1552       C  0.52376540  0.22960442  0.91039976    -0.13000
C1553       C  0.54854878  0.25813629  0.90732955     0.03700
C1554       C  0.54371474  0.28168175  0.90278157    -0.25100
H1555       H  0.97737212  0.31485649  0.89500484     0.08700
H1556       H  0.52807395  0.32238413  0.89443270     0.12300
H1557       H  0.94179368  0.22239616  0.90913558     0.12300
H1558       H  0.47598593  0.20276873  0.91252028     0.12000
H1559       H  0.52692914  0.21108542  0.91394129     0.12600
H1560       H  0.56268221  0.30368617  0.90023655     0.14500
C1561       C  0.79659167  0.25660788  0.92076956    -0.05500
C1562       C  0.77052593  0.22931590  0.92424450    -0.05400
C1563       C  0.74305865  0.22811364  0.92658655    -0.23600
C1564       C  0.74132843  0.25421697  0.92553834     0.18600
C1565       C  0.76760787  0.28194862  0.92276217     0.15800
C1566       C  0.79507569  0.28296099  0.92040464    -0.18600
C1567       C  0.76579900  0.30805147  0.92182140    -0.20400
C1568       C  0.73794397  0.30648862  0.92271449    -0.13000
C1569       C  0.71163239  0.27881774  0.92453598     0.03700
C1570       C  0.71359061  0.25287687  0.92650921    -0.25100
H1571       H  0.77123862  0.20879471  0.92468400     0.08700
H1572       H  0.72308757  0.20671069  0.92880389     0.12300
H1573       H  0.81515476  0.30419942  0.91794378     0.12300
H1574       H  0.78578692  0.32951232  0.91980769     0.12000
H1575       H  0.73686985  0.32669908  0.92111574     0.12600
H1576       H  0.69337439  0.23142749  0.92808167     0.14500
C1577       C  0.77771149  0.16458547  0.80741850    -0.05500
C1578       C  0.76243138  0.15069796  0.82368890    -0.05400
C1579       C  0.77480834  0.16335138  0.84087588    -0.23600
C1580       C  0.80230935  0.19027322  0.84192441     0.18600
C1581       C  0.81696463  0.20505297  0.82554996     0.15800
C1582       C  0.80468242  0.19202087  0.80848020    -0.18600
C1583       C  0.84393090  0.23240093  0.82649338    -0.20400
C1584       C  0.85670471  0.24480164  0.84357738    -0.13000
C1585       C  0.84301408  0.22972152  0.85990900     0.03700
C1586       C  0.81563257  0.20255449  0.85900154    -0.25100
H1587       H  0.74161498  0.12962708  0.82311631     0.08700
H1588       H  0.76312860  0.15189980  0.85332983     0.12300
H1589       H  0.81632849  0.20313740  0.79592035     0.12300
H1590       H  0.85525490  0.24407294  0.81401098     0.12000
H1591       H  0.87764921  0.26576365  0.84402567     0.12600
H1592       H  0.80464273  0.19105272  0.87161199     0.14500
C1593       C  0.89793476  0.19591331  0.19783823    -0.05500
C1594       C  0.90445708  0.18231919  0.18316690    -0.05400
C1595       C  0.90409372  0.19110033  0.16496832    -0.23600
C1596       C  0.89755801  0.21383553  0.16123740     0.18600
C1597       C  0.89269348  0.22878856  0.17599344     0.15800
C1598       C  0.89278036  0.21964245  0.19414083    -0.18600
C1599       C  0.88706825  0.25214256  0.17232798    -0.20400
C1600       C  0.88514773  0.25990567  0.15413563    -0.13000
C1601       C  0.88827014  0.24405378  0.13941438     0.03700
C1602       C  0.89504190  0.22140167  0.14303447    -0.25100
H1603       H  0.90876874  0.16423408  0.18571981     0.08700
H1604       H  0.90829431  0.17969830  0.15379734     0.12300
H1605       H  0.88833780  0.23073329  0.20540896     0.12300
H1606       H  0.88360065  0.26402005  0.18352559     0.12000
H1607       H  0.88009365  0.27749210  0.15156341     0.12600
H1608       H  0.89802312  0.20946664  0.13165116     0.14500
C1609       C  0.95476837  0.25747076  0.07952323    -0.05500
C1610       C  0.95511248  0.23096995  0.08281841    -0.05400
C1611       C  0.98230001  0.23139233  0.08455467    -0.23600
C1612       C  0.50945936  0.25827605  0.08283578     0.18600
C1613       C  0.50921981  0.28479537  0.07873607     0.15800
C1614       C  0.98190406  0.28417375  0.07701563    -0.18600
C1615       C  0.53630781  0.31166256  0.07695467    -0.20400
C1616       C  0.56345557  0.31244677  0.07968139    -0.13000
C1617       C  0.56393440  0.28639735  0.08431642     0.03700
C1618       C  0.53681985  0.25927246  0.08566910    -0.25100
H1619       H  0.93440136  0.21018513  0.08489927     0.08700
H1620       H  0.98207661  0.21084232  0.08766350     0.12300
H1621       H  0.98176719  0.30468727  0.07434663     0.12300
H1622       H  0.53649128  0.33214612  0.07368926     0.12000
H1623       H  0.58408795  0.33354459  0.07837388     0.12600
H1624       H  0.53697877  0.23896385  0.08897918     0.14500
C1625       C  0.72052503  0.28890066  0.09377910    -0.05500
C1626       C  0.74767939  0.31486917  0.08965923    -0.05400
C1627       C  0.77455214  0.31441903  0.08905825    -0.23600
C1628       C  0.77477176  0.28791328  0.09239980     0.18600
C1629       C  0.74764089  0.26161494  0.09653890     0.15800
C1630       C  0.72074232  0.26231910  0.09734276    -0.18600
C1631       C  0.74784257  0.23497884  0.09950165    -0.20400
C1632       C  0.77460687  0.23433448  0.09816445    -0.13000
C1633       C  0.80170513  0.26038496  0.09409827     0.03700
C1634       C  0.80160933  0.28719200  0.09138413    -0.25100
H1635       H  0.74814463  0.33557659  0.08677731     0.08700
H1636       H  0.79513116  0.33475377  0.08577907     0.12300
H1637       H  0.69993193  0.24204276  0.10035973     0.12300
H1638       H  0.72725246  0.21457193  0.10264268     0.12000
H1639       H  0.77410583  0.21342404  0.10029548     0.12600
H1640       H  0.82231335  0.30737986  0.08803888     0.14500
C1641       C  0.87157479  0.27015380  0.03209957    -0.05500
C1642       C  0.84605730  0.24779724  0.02313067    -0.05400
C1643       C  0.84405174  0.24700683  0.00404880    -0.23600
C1644       C  0.86771457  0.26839447  0.99350260     0.18600
C1645       C  0.89304769  0.29203752  0.00215205     0.15800
C1646       C  0.89471351  0.29300709  0.02160633    -0.18600
C1647       C  0.91654514  0.31325695  0.99107417    -0.20400
C1648       C  0.91541780  0.31004429  0.97173443    -0.13000
C1649       C  0.89086084  0.28549423  0.96342816     0.03700
C1650       C  0.86678589  0.26549368  0.97439031    -0.25100
H1651       H  0.82785290  0.23025084  0.03092324     0.08700
H1652       H  0.82442422  0.22895512  0.99751540     0.12300
H1653       H  0.91450927  0.31030779  0.02844572     0.12300
H1654       H  0.93609365  0.33171924  0.99737143     0.12000
H1655       H  0.93407872  0.32586370  0.96341768     0.12600
H1656       H  0.84744050  0.24685634  0.96797535     0.14500
O1657       O  0.82949095  0.73518778  0.08962028    -0.72000
O1658       O  0.90144813  0.73456831  0.07888351    -0.72300
O1659       O  0.87018756  0.72839903  0.10921667    -0.72100
O1660       O  0.86114662  0.74109651  0.05905502    -0.72100
O1661       O  0.88957241  0.78890585  0.06262748    -0.72100
O1662       O  0.89277814  0.77612447  0.11429613    -0.72100
O1663       O  0.92700193  0.78197009  0.08496935    -0.72000
O1664       O  0.85489414  0.78342299  0.09190783    -0.72200
V1665       V  0.86597671  0.73576464  0.08425372     1.35200
V1666       V  0.89052660  0.78174552  0.08840662     1.35200
C1667       C  0.82983245  0.75957650  0.09196948     0.77200
C1668       C  0.92654561  0.75804540  0.08083643     0.77300
C1669       C  0.88344383  0.74997201  0.12026619     0.77100
C1670       C  0.87430007  0.76686683  0.05210637     0.77100
O1671       O  0.90350511  0.74042562  0.91013747    -0.72000
O1672       O  0.82855965  0.73555647  0.91996716    -0.72300
O1673       O  0.85270104  0.72390066  0.89091941    -0.72100
O1674       O  0.87793908  0.75103108  0.93927380    -0.72100
O1675       O  0.89563707  0.79707429  0.93097074    -0.72100
O1676       O  0.87187708  0.76950782  0.88134783    -0.72100
O1677       O  0.84695706  0.78108831  0.91044798    -0.72000
O1678       O  0.92178806  0.78646877  0.90175183    -0.72200
V1679       V  0.86623949  0.73867057  0.91485134     1.35200
V1680       V  0.88387769  0.78267882  0.90622114     1.35200
C1681       C  0.92566888  0.76463933  0.90464228     0.77200
C1682       C  0.82515212  0.75771073  0.91693816     0.77300
C1683       C  0.85683034  0.74174483  0.87801688     0.77100
C1684       C  0.88912151  0.77808638  0.94367858     0.77100
O1685       O  0.69097792  0.81179118  0.08770732    -0.72000
O1686       O  0.61705553  0.81054663  0.08326922    -0.72300
O1687       O  0.65784713  0.82653491  0.10991434    -0.72100
O1688       O  0.64907983  0.79616280  0.06122047    -0.72100
O1689       O  0.62620285  0.75077329  0.07156761    -0.72100
O1690       O  0.63462358  0.78143251  0.12065615    -0.72100
O1691       O  0.59355381  0.76519251  0.09360079    -0.72000
O1692       O  0.66760565  0.76664601  0.09834551    -0.72200
V1693       V  0.65347538  0.81036434  0.08578967     1.35200
V1694       V  0.63104712  0.76690483  0.09592478     1.35200
C1695       C  0.69189281  0.78920938  0.09340582     0.77200
C1696       C  0.59265663  0.78742968  0.08727784     0.77300
C1697       C  0.64670653  0.80924551  0.12353290     0.77100
C1698       C  0.63517684  0.76846395  0.05801161     0.77100
O1699       O  0.60130513  0.78887147  0.91266054    -0.72000
O1700       O  0.67772151  0.79799555  0.92410173    -0.72300
O1701       O  0.65153369  0.80226048  0.89367581    -0.72100
O1702       O  0.62810108  0.78575608  0.94335333    -0.72100
O1703       O  0.61312613  0.73881493  0.93929087    -0.72100
O1704       O  0.63145945  0.75502096  0.88762704    -0.72100
O1705       O  0.66006088  0.75123531  0.91747039    -0.72000
O1706       O  0.58343328  0.74125251  0.90943618    -0.72200
V1707       V  0.63924909  0.79276832  0.91836120     1.35200
V1708       V  0.62227800  0.74742988  0.91350604     1.35200
C1709       C  0.57909577  0.76313349  0.90968489     0.77200
C1710       C  0.68190969  0.77602849  0.92221054     0.77300
C1711       C  0.64598821  0.78188794  0.88215639     0.77100
C1712       C  0.61728821  0.75997717  0.95002026     0.77100
O1713       O  0.77242583  0.60410719  0.75820504    -0.72000
O1714       O  0.78046770  0.67980879  0.74731695    -0.72300
O1715       O  0.78700670  0.65445408  0.77725681    -0.72100
O1716       O  0.76700281  0.63017393  0.72804276    -0.72100
O1717       O  0.71978679  0.61349735  0.73362495    -0.72100
O1718       O  0.74007792  0.63628583  0.78437702    -0.72100
O1719       O  0.73344375  0.66197751  0.75403111    -0.72000
O1720       O  0.72519652  0.58656127  0.76400620    -0.72200
V1721       V  0.77573516  0.64169421  0.75284303     1.35200
V1722       V  0.73047906  0.62480052  0.75894457     1.35200
C1723       C  0.74710967  0.58214557  0.76248350     0.77200
C1724       C  0.75824062  0.68378830  0.74913510     0.77300
C1725       C  0.76748217  0.65068575  0.78907422     0.77100
C1726       C  0.74044063  0.61813302  0.72226653     0.77100
O1727       O  0.80043718  0.69747847  0.58909608    -0.72000
O1728       O  0.79304428  0.62070172  0.58964850    -0.72300
O1729       O  0.81417940  0.66551269  0.56568176    -0.72100
O1730       O  0.77984950  0.65197369  0.61326889    -0.72100
O1731       O  0.73533116  0.63422065  0.60154244    -0.72100
O1732       O  0.76989225  0.64581407  0.55340464    -0.72100
O1733       O  0.74807274  0.60179644  0.57843210    -0.72000
O1734       O  0.75634864  0.67819163  0.57657191    -0.72200
V1735       V  0.79601467  0.65869722  0.58920255     1.35200
V1736       V  0.75331386  0.64047088  0.57766247     1.35200
C1737       C  0.77942127  0.70077961  0.58273541     0.77200
C1738       C  0.76898110  0.59815240  0.58436576     0.77300
C1739       C  0.79798340  0.65710707  0.55143649     0.77100
C1740       C  0.75189852  0.64007796  0.61558560     0.77100
O1741       O  0.72304600  0.90562268  0.75658859    -0.72000
O1742       O  0.71872084  0.83137716  0.74492238    -0.72300
O1743       O  0.70783304  0.85445333  0.77504253    -0.72100
O1744       O  0.73295254  0.88178490  0.72645600    -0.72100
O1745       O  0.77924966  0.89679915  0.73368659    -0.72100
O1746       O  0.75426096  0.87622994  0.78393969    -0.72100
O1747       O  0.76406315  0.84931344  0.75520103    -0.72000
O1748       O  0.77043430  0.92448223  0.76239919    -0.72200
V1749       V  0.72149476  0.86867065  0.75092115     1.35200
V1750       V  0.76611344  0.88638480  0.75872154     1.35200
C1751       C  0.74814632  0.92818350  0.76060518     0.77200
C1752       C  0.74072582  0.82766634  0.74847318     0.77300
C1753       C  0.72659367  0.86058657  0.78782827     0.77100
C1754       C  0.76005732  0.89340753  0.72161425     0.77100
O1755       O  0.73832722  0.84690853  0.58291962    -0.72000
O1756       O  0.74785626  0.92454989  0.58543347    -0.72300
O1757       O  0.73113532  0.88307476  0.55937505    -0.72100
O1758       O  0.75405902  0.88887970  0.60910581    -0.72100
O1759       O  0.80079052  0.90728995  0.60136643    -0.72100
O1760       O  0.77750654  0.90263893  0.55057571    -0.72100
O1761       O  0.79456288  0.94341357  0.57755275    -0.72000
O1762       O  0.78482703  0.86653270  0.57436376    -0.72200
V1763       V  0.74376972  0.88608232  0.58402550     1.35200
V1764       V  0.78852369  0.90448952  0.57606678     1.35200
C1765       C  0.76038240  0.84370378  0.57856367     0.77200
C1766       C  0.77300900  0.94721811  0.58191381     0.77300
C1767       C  0.75021468  0.89317028  0.54655814     0.77100
C1768       C  0.78102426  0.89957489  0.61387801     0.77100
O1769       O  0.69486477  0.94167201  0.24636020    -0.72000
O1770       O  0.62651620  0.86650630  0.25904509    -0.72300
O1771       O  0.65903136  0.88956921  0.22841875    -0.72100
O1772       O  0.66300196  0.91784233  0.27696382    -0.72100
O1773       O  0.63103393  0.93211298  0.27030275    -0.72100
O1774       O  0.63214065  0.90894466  0.21993229    -0.72100
O1775       O  0.59776804  0.88332267  0.24976844    -0.72000
O1776       O  0.66495879  0.95878097  0.24057853    -0.72200
V1777       V  0.66031668  0.90423109  0.25251021     1.35200
V1778       V  0.63206548  0.92048009  0.24521086     1.35200
C1779       C  0.69133868  0.96352896  0.24228687     0.77200
C1780       C  0.60032756  0.86221927  0.25630951     0.77300
C1781       C  0.64493050  0.89409935  0.21585826     0.77100
C1782       C  0.64766648  0.92938650  0.28206796     0.77100
O1783       O  0.63201548  0.86956316  0.41919032    -0.72000
O1784       O  0.70735062  0.94045353  0.41443045    -0.72300
O1785       O  0.68075306  0.89971901  0.44077337    -0.72100
O1786       O  0.65958685  0.91064095  0.39265853    -0.72100
O1787       O  0.64027216  0.93643173  0.40365149    -0.72100
O1788       O  0.66102194  0.92474251  0.45228171    -0.72100
O1789       O  0.68791059  0.96584194  0.42582633    -0.72000
O1790       O  0.61301134  0.89575238  0.42997691    -0.72200
V1791       V  0.66945274  0.90550578  0.41699119     1.35200
V1792       V  0.65092206  0.93015728  0.42777536     1.35200
C1793       C  0.60952857  0.87089217  0.42499707     0.77200
C1794       C  0.71033547  0.96523125  0.41933863     0.77300
C1795       C  0.67512404  0.91078610  0.45471502     0.77100
C1796       C  0.64675380  0.92559821  0.38988909     0.77100
O1797       O  0.84234353  0.64133095  0.24771505    -0.72000
O1798       O  0.91147029  0.71666362  0.25870884    -0.72300
O1799       O  0.87994866  0.69056332  0.22839136    -0.72100
O1800       O  0.87361603  0.66826997  0.27821673    -0.72100
O1801       O  0.90353739  0.65067027  0.27375129    -0.72100
O1802       O  0.90756695  0.67074329  0.22255874    -0.72100
O1803       O  0.93975833  0.69757539  0.25291277    -0.72000
O1804       O  0.87139393  0.62274492  0.24329554    -0.72200
V1805       V  0.87735470  0.67876534  0.25315468     1.35200
V1806       V  0.90492114  0.66068482  0.24819443     1.35200
C1807       C  0.84522762  0.61897701  0.24389382     0.77200
C1808       C  0.93748513  0.71988456  0.25743004     0.77300
C1809       C  0.89512238  0.68511969  0.21699560     0.77100
C1810       C  0.88790178  0.65650259  0.28470614     0.77100
O1811       O  0.93495889  0.71934474  0.42590901    -0.72000
O1812       O  0.85732311  0.65171132  0.42110940    -0.72300
O1813       O  0.88812997  0.68781364  0.44867438    -0.72100
O1814       O  0.90282678  0.68273350  0.39826137    -0.72100
O1815       O  0.92251869  0.65520387  0.40441439    -0.72100
O1816       O  0.90517533  0.65827357  0.45556655    -0.72100
O1817       O  0.87614767  0.62326475  0.42676227    -0.72000
O1818       O  0.95277118  0.69062900  0.43321305    -0.72200
V1819       V  0.89642113  0.68503705  0.42364864     1.35200
V1820       V  0.91396902  0.65751793  0.42992261     1.35200
C1821       C  0.95715551  0.71646120  0.43022564     0.77200
C1822       C  0.85372834  0.62589246  0.42290323     0.77300
C1823       C  0.89222079  0.67250989  0.46054437     0.77100
C1824       C  0.91380473  0.66716834  0.39260424     0.77100
C1825       C  0.88658789  0.65125155  0.30478064    -0.05500
C1826       C  0.86186466  0.64864938  0.31463648    -0.05400
C1827       C  0.86203247  0.64952885  0.33379661    -0.23600
C1828       C  0.88703812  0.65320993  0.34351986     0.18600
C1829       C  0.91148746  0.65419853  0.33397373     0.15800
C1830       C  0.91102840  0.65296601  0.31451953    -0.18600
C1831       C  0.93628757  0.65760999  0.34410868    -0.20400
C1832       C  0.93714256  0.66098509  0.36339576    -0.13000
C1833       C  0.91342414  0.66146266  0.37264967     0.03700
C1834       C  0.88825839  0.65693677  0.36263657    -0.25100
H1835       H  0.84271400  0.64706419  0.30745229     0.08700
H1836       H  0.84301741  0.64841064  0.34098545     0.12300
H1837       H  0.93026072  0.65515948  0.30702433     0.12300
H1838       H  0.95520309  0.65825299  0.33710359     0.12000
H1839       H  0.95662683  0.66420803  0.37096545     0.12600
H1840       H  0.86959676  0.65668557  0.36979029     0.14500
C1841       C  0.82426207  0.59919410  0.42075286    -0.05500
C1842       C  0.79789464  0.60061925  0.42255925    -0.05400
C1843       C  0.77003437  0.57454502  0.42203985    -0.23600
C1844       C  0.76834350  0.54688354  0.41958861     0.18600
C1845       C  0.79483666  0.54553038  0.41707292     0.15800
C1846       C  0.82256056  0.57166734  0.41766711    -0.18600
C1847       C  0.79325173  0.51799909  0.41442179    -0.20400
C1848       C  0.76559396  0.99179515  0.41472870    -0.13000
C1849       C  0.73925043  0.99285125  0.41779305     0.03700
C1850       C  0.74070470  0.02049661  0.41994390    -0.25100
H1851       H  0.79886807  0.62173498  0.42491848     0.08700
H1852       H  0.74989181  0.57594622  0.42388145     0.12300
H1853       H  0.84288689  0.57051012  0.41601644     0.12300
H1854       H  0.81341560  0.51669542  0.41239265     0.12000
H1855       H  0.76488359  0.97068569  0.41301237     0.12600
H1856       H  0.72038704  0.02148293  0.42214124     0.14500
C1857       C  0.57950737  0.84460154  0.42541567    -0.05500
C1858       C  0.55473223  0.84802382  0.42155085    -0.05400
C1859       C  0.52586287  0.82357155  0.42185272    -0.23600
C1860       C  0.52131019  0.79539903  0.42634883     0.18600
C1861       C  0.54611084  0.79174096  0.43045986     0.15800
C1862       C  0.57521126  0.81639594  0.42972988    -0.18600
C1863       C  0.04134376  0.76346472  0.43515779    -0.20400
C1864       C  0.01226917  0.73902838  0.43553544    -0.13000
C1865       C  0.98760591  0.74247885  0.43114789     0.03700
C1866       C  0.99234675  0.77080302  0.42673006    -0.25100
H1867       H  0.55777716  0.86966664  0.41805010     0.08700
H1868       H  0.50710661  0.82671729  0.41863489     0.12300
H1869       H  0.59436101  0.81381029  0.43282523     0.12300
H1870       H  0.55996779  0.76029272  0.43852799     0.12000
H1871       H  0.00913438  0.71735013  0.43900041     0.12600
H1872       H  0.97349964  0.77372220  0.42332734     0.14500
C1873       C  0.81905745  0.58877511  0.24072926    -0.05500
C1874       C  0.82379989  0.56486060  0.23661983    -0.05400
C1875       C  0.79977876  0.53573303  0.23528745    -0.23600
C1876       C  0.77039609  0.52979124  0.23798431     0.18600
C1877       C  0.76516042  0.55374262  0.24134456     0.15800
C1878       C  0.78948865  0.58307082  0.24270558    -0.18600
C1879       C  0.73570950  0.54782055  0.24373466    -0.20400
C1880       C  0.71185223  0.01850718  0.24332864    -0.13000
C1881       C  0.71687050  0.99440319  0.24070061     0.03700
C1882       C  0.74627578  0.00027021  0.23778826    -0.25100
H1883       H  0.84626892  0.56853757  0.23484561     0.08700
H1884       H  0.80426602  0.51776485  0.23250045     0.12300
H1885       H  0.78543647  0.60125787  0.24576976     0.12300
H1886       H  0.73115325  0.56581393  0.24624960     0.12000
H1887       H  0.68942589  0.01464572  0.24570209     0.12600
H1888       H  0.75040868  0.98190838  0.23566398     0.14500
C1889       C  0.57289205  0.83345043  0.26011023    -0.05500
C1890       C  0.57398394  0.80726717  0.26308414    -0.05400
C1891       C  0.54742550  0.77977301  0.26448522    -0.23600
C1892       C  0.51944911  0.77811361  0.26293279     0.18600
C1893       C  0.51819835  0.80452565  0.26084574     0.15800
C1894       C  0.54483565  0.83191340  0.25954097    -0.18600
C1895       C  0.99032573  0.80305782  0.25934378    -0.20400
C1896       C  0.96386777  0.77549924  0.25912834    -0.13000
C1897       C  0.96487796  0.74901090  0.26033783     0.03700
C1898       C  0.99274633  0.75053205  0.26274185    -0.25100
H1899       H  0.59529095  0.80791541  0.26367746     0.08700
H1900       H  0.54877178  0.75971671  0.26624777     0.12300
H1901       H  0.54364322  0.85201408  0.25749503     0.12300
H1902       H  0.98904652  0.82318732  0.25779521     0.12000
H1903       H  0.94272446  0.77487196  0.25725081     0.12600
H1904       H  0.99375622  0.73018797  0.26384654     0.14500
C1905       C  0.65029983  0.93938902  0.30138253    -0.05500
C1906       C  0.67917662  0.95717749  0.30864687    -0.05400
C1907       C  0.68370258  0.96099556  0.32764030    -0.23600
C1908       C  0.65942553  0.94650267  0.33975430     0.18600
C1909       C  0.62995684  0.92995117  0.33264518     0.15800
C1910       C  0.62550638  0.92678620  0.31337957    -0.18600
C1911       C  0.60581518  0.91521673  0.34496527    -0.20400
C1912       C  0.61102684  0.91543134  0.36396525    -0.13000
C1913       C  0.64038278  0.93042401  0.37085546     0.03700
C1914       C  0.66439218  0.94662812  0.35877566    -0.25100
H1915       H  0.69849940  0.96689690  0.29957489     0.08700
H1916       H  0.70637434  0.97391069  0.33286044     0.12300
H1917       H  0.60323746  0.91259495  0.30783817     0.12300
H1918       H  0.58307680  0.90244667  0.33984580     0.12000
H1919       H  0.59232543  0.90257673  0.37314992     0.12600
H1920       H  0.68709493  0.95802954  0.36411777     0.14500
C1921       C  0.74022967  0.89531566  0.52778361    -0.05500
C1922       C  0.75487688  0.89357409  0.51188525    -0.05400
C1923       C  0.74455036  0.89551318  0.49434391    -0.23600
C1924       C  0.71991405  0.89999445  0.49247429     0.18600
C1925       C  0.70560376  0.90257564  0.50843440     0.15800
C1926       C  0.71556839  0.89980749  0.52589770    -0.18600
C1927       C  0.68171092  0.90813609  0.50668600    -0.20400
C1928       C  0.67194718  0.91104163  0.48924589    -0.13000
C1929       C  0.68548654  0.90784198  0.47323487     0.03700
C1930       C  0.70949173  0.90223521  0.47497548    -0.25100
H1931       H  0.77395820  0.89026882  0.51303261     0.08700
H1932       H  0.75594509  0.89370399  0.48224153     0.12300
H1933       H  0.70443912  0.90176122  0.53810975     0.12300
H1934       H  0.67066473  0.91040026  0.51882556     0.12000
H1935       H  0.65354811  0.91543842  0.48826810     0.12600
H1936       H  0.72042083  0.90015393  0.46271331     0.14500
C1937       C  0.76803686  0.90296826  0.70228111    -0.05500
C1938       C  0.75257664  0.91528623  0.69345469    -0.05400
C1939       C  0.75517680  0.92015434  0.67453717    -0.23600
C1940       C  0.77289019  0.91225199  0.66397229     0.18600
C1941       C  0.78985193  0.90115427  0.67264000     0.15800
C1942       C  0.78765619  0.89693461  0.69195736    -0.18600
C1943       C  0.80723291  0.89303022  0.66162489    -0.20400
C1944       C  0.80628826  0.89424615  0.64225574    -0.13000
C1945       C  0.78799948  0.90364566  0.63376547     0.03700
C1946       C  0.77233812  0.91364014  0.64475252    -0.25100
H1947       H  0.73758926  0.92029074  0.70119262     0.08700
H1948       H  0.74223384  0.92886107  0.66805528     0.12300
H1949       H  0.79947179  0.88720486  0.69868581     0.12300
H1950       H  0.82050246  0.88457129  0.66793875     0.12000
H1951       H  0.81842590  0.88632579  0.63396834     0.12600
H1952       H  0.75833331  0.92110794  0.63822888     0.14500
C1953       C  0.77733055  0.97746571  0.58265591    -0.05500
C1954       C  0.80612362  0.00233145  0.58034348    -0.05400
C1955       C  0.81042182  0.53111619  0.58073401    -0.23600
C1956       C  0.78589301  0.53539479  0.58319849     0.18600
C1957       C  0.75680343  0.51046126  0.58533788     0.15800
C1958       C  0.75275570  0.98170536  0.58528257    -0.18600
C1959       C  0.73216340  0.51468975  0.58737183    -0.20400
C1960       C  0.73625843  0.54336504  0.58706972    -0.13000
C1961       C  0.76508145  0.56819074  0.58507016     0.03700
C1962       C  0.78989345  0.56415409  0.58332465    -0.25100
H1963       H  0.82541827  0.99957617  0.57825255     0.08700
H1964       H  0.83282261  0.54995306  0.57896978     0.12300
H1965       H  0.73044564  0.96264743  0.58693807     0.12300
H1966       H  0.70973590  0.49584331  0.58900132     0.12000
H1967       H  0.71689193  0.54618333  0.58852121     0.12600
H1968       H  0.81213379  0.58330647  0.58159662     0.14500
C1969       C  0.78116629  0.73001590  0.58250759    -0.05500
C1970       C  0.80884584  0.75649713  0.58379779    -0.05400
C1971       C  0.81019647  0.78406835  0.58297610    -0.23600
C1972       C  0.78383697  0.78548372  0.58112700     0.18600
C1973       C  0.75583321  0.75893353  0.58022360     0.15800
C1974       C  0.75472260  0.73141593  0.58076053    -0.18600
C1975       C  0.72941795  0.76036016  0.57885488    -0.20400
C1976       C  0.73073145  0.78793793  0.57835929    -0.13000
C1977       C  0.75849983  0.81440939  0.57890692     0.03700
C1978       C  0.78498631  0.81299538  0.58026972    -0.25100
H1979       H  0.82944488  0.75586882  0.58513879     0.08700
H1980       H  0.83183351  0.80427103  0.58378792     0.12300
H1981       H  0.73319701  0.71104941  0.57996638     0.12300
H1982       H  0.70775677  0.74015982  0.57824829     0.12000
H1983       H  0.71010219  0.78858638  0.57738335     0.12600
H1984       H  0.80653341  0.83335200  0.58098260     0.14500
C1985       C  0.81182189  0.65993703  0.53309766    -0.05500
C1986       C  0.79695163  0.66038053  0.51704042    -0.05400
C1987       C  0.81023342  0.66340877  0.49975429    -0.23600
C1988       C  0.83835698  0.66545629  0.49821446     0.18600
C1989       C  0.85319670  0.66412375  0.51419968     0.15800
C1990       C  0.84000257  0.66177529  0.53157174    -0.18600
C1991       C  0.88082658  0.66497688  0.51246000    -0.20400
C1992       C  0.89370471  0.66734951  0.49501652    -0.13000
C1993       C  0.87950622  0.66973805  0.47918352     0.03700
C1994       C  0.85179224  0.66867185  0.48091565    -0.25100
H1995       H  0.77523206  0.65883349  0.51788238     0.08700
H1996       H  0.79847056  0.66409434  0.48756962     0.12300
H1997       H  0.85144757  0.66092567  0.54387808     0.12300
H1998       H  0.89238270  0.66367770  0.52456963     0.12000
H1999       H  0.91491513  0.66785477  0.49391072     0.12600
H2000       H  0.84034983  0.66978477  0.46867147     0.14500
C2001       C  0.74271720  0.55172696  0.76483401    -0.05500
C2002       C  0.71392608  0.52731256  0.76820769    -0.05400
C2003       C  0.70903402  0.49818997  0.76859295    -0.23600
C2004       C  0.73284570  0.49283352  0.76565225     0.18600
C2005       C  0.76203357  0.51730903  0.76289434     0.15800
C2006       C  0.76677292  0.54648199  0.76249278    -0.18600
C2007       C  0.78598858  0.51219865  0.76020149    -0.20400
C2008       C  0.78139900  0.98333807  0.76012393    -0.13000
C2009       C  0.75241086  0.95864040  0.76227631     0.03700
C2010       C  0.72824981  0.96361813  0.76521402    -0.25100
H2011       H  0.69494860  0.53063609  0.77011112     0.08700
H2012       H  0.68652746  0.47982843  0.77088180     0.12300
H2013       H  0.78909371  0.56501997  0.75992220     0.12300
H2014       H  0.80851087  0.53064866  0.75809379     0.12000
H2015       H  0.80041151  0.98022235  0.75773228     0.12600
H2016       H  0.70582375  0.94480564  0.76696388     0.14500
C2017       C  0.73958563  0.79886056  0.74531224    -0.05500
C2018       C  0.71269897  0.77312658  0.74046361    -0.05400
C2019       C  0.71141055  0.74555658  0.73909212    -0.23600
C2020       C  0.73701339  0.74331253  0.74251996     0.18600
C2021       C  0.76445019  0.76927007  0.74663140     0.15800
C2022       C  0.76554953  0.79679209  0.74798669    -0.18600
C2023       C  0.79016194  0.76715451  0.74985603    -0.20400
C2024       C  0.78846977  0.73938326  0.74971501    -0.13000
C2025       C  0.76101521  0.71330218  0.74650362     0.03700
C2026       C  0.73545927  0.71548256  0.74252085    -0.25100
H2027       H  0.69247915  0.77416683  0.73821199     0.08700
H2028       H  0.69024596  0.72589801  0.73576160     0.12300
H2029       H  0.78654891  0.81650826  0.75155006     0.12300
H2030       H  0.81140213  0.78688442  0.75295456     0.12000
H2031       H  0.80834916  0.73817924  0.75292788     0.12600
H2032       H  0.71420228  0.69544666  0.73991913     0.14500
C2033       C  0.73524901  0.61055287  0.70254896    -0.05500
C2034       C  0.75154132  0.59851393  0.69429251    -0.05400
C2035       C  0.75516274  0.59918492  0.67526168    -0.23600
C2036       C  0.74283112  0.61228160  0.66415376     0.18600
C2037       C  0.72441103  0.62246414  0.67206078     0.15800
C2038       C  0.72040844  0.62122534  0.69136502    -0.18600
C2039       C  0.71218667  0.63552282  0.66059938    -0.20400
C2040       C  0.71965739  0.64001008  0.64177566    -0.13000
C2041       C  0.73961188  0.63172665  0.63433752     0.03700
C2042       C  0.75026725  0.61701466  0.64544872    -0.25100
H2043       H  0.76315750  0.59029195  0.70273409     0.08700
H2044       H  0.76907684  0.59104362  0.66934756     0.12300
H2045       H  0.70820089  0.63095758  0.69771129     0.12300
H2046       H  0.69784718  0.64328681  0.66631650     0.12000
H2047       H  0.71113904  0.65125981  0.63328957     0.12600
H2048       H  0.76539250  0.61026030  0.63961758     0.14500
C2049       C  0.71603441  0.84915255  0.80667006    -0.05500
C2050       C  0.73258781  0.86517044  0.82215373    -0.05400
C2051       C  0.72206797  0.85480513  0.83994101    -0.23600
C2052       C  0.69513678  0.82788040  0.84254059     0.18600
C2053       C  0.67868532  0.81103603  0.82709249     0.15800
C2054       C  0.68902601  0.82201476  0.80924076    -0.18600
C2055       C  0.65221113  0.78360206  0.82983274    -0.20400
C2056       C  0.64185863  0.77325377  0.84773535    -0.13000
C2057       C  0.65751931  0.79049032  0.86311297     0.03700
C2058       C  0.68431060  0.81765845  0.86035522    -0.25100
H2059       H  0.75336227  0.88604806  0.82048917     0.08700
H2060       H  0.73500005  0.86787760  0.85168293     0.12300
H2061       H  0.67626958  0.80929551  0.79734182     0.12300
H2062       H  0.63941636  0.77026578  0.81813437     0.12000
H2063       H  0.62118987  0.75233197  0.84955471     0.12600
H2064       H  0.69678988  0.83095839  0.87216769     0.14500
C2065       C  0.64346189  0.88155840  0.19714656    -0.05500
C2066       C  0.64005699  0.89500927  0.18128965    -0.05400
C2067       C  0.64055919  0.88382299  0.16369949    -0.23600
C2068       C  0.64383258  0.85859050  0.16167323     0.18600
C2069       C  0.64611474  0.84421759  0.17756534     0.15800
C2070       C  0.64629345  0.85598329  0.19512490    -0.18600
C2071       C  0.64817550  0.81830962  0.17562189    -0.20400
C2072       C  0.64815224  0.80680887  0.15808691    -0.13000
C2073       C  0.64687535  0.82141126  0.14215429     0.03700
C2074       C  0.64473117  0.84738446  0.14407392    -0.25100
H2075       H  0.63778391  0.91462056  0.18248124     0.08700
H2076       H  0.63846427  0.89496203  0.15166883     0.12300
H2077       H  0.64846985  0.84509183  0.20727267     0.12300
H2078       H  0.64967054  0.80685075  0.18767887     0.12000
H2079       H  0.64958587  0.78671409  0.15695682     0.12600
H2080       H  0.64312450  0.85850094  0.13186646     0.14500
C2081       C  0.61044981  0.75624986  0.96997038    -0.05500
C2082       C  0.60021219  0.77421505  0.97805907    -0.05400
C2083       C  0.60065896  0.77786259  0.99709470    -0.23600
C2084       C  0.61161872  0.76378110  0.00846844     0.18600
C2085       C  0.61986853  0.74376633  0.00076480     0.15800
C2086       C  0.61897890  0.73985700  0.98141218    -0.18600
C2087       C  0.63046500  0.72953799  0.01253445    -0.20400
C2088       C  0.63432356  0.73636039  0.03148331    -0.13000
C2089       C  0.62804336  0.75778280  0.03878771     0.03700
C2090       C  0.61588707  0.77069491  0.02729990    -0.25100
H2091       H  0.59334100  0.78682713  0.96950373     0.08700
H2092       H  0.59384929  0.79291196  0.00284035     0.12300
H2093       H  0.62709699  0.72610799  0.97527454     0.12300
H2094       H  0.63664854  0.71389985  0.00700684     0.12000
H2095       H  0.64344868  0.72597255  0.04023784     0.12600
H2096       H  0.61050013  0.78685594  0.03299727     0.14500
C2097       C  0.95576310  0.76805499  0.90236161    -0.05500
C2098       C  0.98038217  0.79603288  0.89783973    -0.05400
C2099       C  0.50942062  0.80048034  0.89757279    -0.23600
C2100       C  0.51438672  0.77697232  0.90178338     0.18600
C2101       C  0.48966392  0.74841025  0.90552807     0.15800
C2102       C  0.96055026  0.74413317  0.90585757    -0.18600
C2103       C  0.49456749  0.72478473  0.90948495    -0.20400
C2104       C  0.52370280  0.72958347  0.91026081    -0.13000
C2105       C  0.54849260  0.75813962  0.90726459     0.03700
C2106       C  0.54366472  0.78170547  0.90276393    -0.25100
H2107       H  0.97732083  0.81482664  0.89498503     0.08700
H2108       H  0.52803788  0.82244575  0.89449841     0.12300
H2109       H  0.94176000  0.72242375  0.90926153     0.12300
H2110       H  0.47591616  0.70272028  0.91230263     0.12000
H2111       H  0.52685949  0.71104602  0.91376186     0.12600
H2112       H  0.56263628  0.80372936  0.90027441     0.14500
C2113       C  0.79651159  0.75657885  0.92070679    -0.05500
C2114       C  0.77043709  0.72927711  0.92414457    -0.05400
C2115       C  0.74296869  0.72807172  0.92648535    -0.23600
C2116       C  0.74124595  0.75418197  0.92547444     0.18600
C2117       C  0.76753123  0.78192069  0.92273074     0.15800
C2118       C  0.79500076  0.78293596  0.92037212    -0.18600
C2119       C  0.76572727  0.80802930  0.92182670    -0.20400
C2120       C  0.73787271  0.80646797  0.92272627    -0.13000
C2121       C  0.71155704  0.77879308  0.92451860     0.03700
C2122       C  0.71350999  0.75284350  0.92645328    -0.25100
H2123       H  0.77114549  0.70875244  0.92455862     0.08700
H2124       H  0.72299231  0.70666297  0.92867583     0.12300
H2125       H  0.81508649  0.80418071  0.91793923     0.12300
H2126       H  0.78571923  0.82949533  0.91983790     0.12000
H2127       H  0.73680327  0.82668540  0.92115637     0.12600
H2128       H  0.69329137  0.73138984  0.92800208     0.14500
C2129       C  0.77775769  0.66460451  0.80738554    -0.05500
C2130       C  0.76242356  0.65078325  0.82365521    -0.05400
C2131       C  0.77478973  0.66345103  0.84084083    -0.23600
C2132       C  0.80233346  0.69032704  0.84188938     0.18600
C2133       C  0.81705295  0.70504467  0.82551465     0.15800
C2134       C  0.80478300  0.69199243  0.80844544    -0.18600
C2135       C  0.84406303  0.73235367  0.82645944    -0.20400
C2136       C  0.85681276  0.74477438  0.84354608    -0.13000
C2137       C  0.84305351  0.72974944  0.85987921     0.03700
C2138       C  0.81563246  0.70262368  0.85896868    -0.25100
H2139       H  0.74156466  0.62975258  0.82308468     0.08700
H2140       H  0.76306221  0.65204891  0.85329495     0.12300
H2141       H  0.81647253  0.70306182  0.79588589     0.12300
H2142       H  0.85543799  0.74397971  0.81397678     0.12000
H2143       H  0.87779124  0.76570290  0.84399675     0.12600
H2144       H  0.80459272  0.69116538  0.87157963     0.14500
C2145       C  0.89797688  0.69594508  0.19784510    -0.05500
C2146       C  0.90453284  0.68238113  0.18317195    -0.05400
C2147       C  0.90420204  0.69119493  0.16497677    -0.23600
C2148       C  0.89766334  0.71393070  0.16125232     0.18600
C2149       C  0.89276853  0.72885542  0.17601201     0.15800
C2150       C  0.89282623  0.71967921  0.19415476    -0.18600
C2151       C  0.88713525  0.75220669  0.17235424    -0.20400
C2152       C  0.88522395  0.75998664  0.15416447    -0.13000
C2153       C  0.88836791  0.74415632  0.13943875     0.03700
C2154       C  0.89516253  0.72151751  0.14305203    -0.25100
H2155       H  0.90884451  0.66429485  0.18571982     0.08700
H2156       H  0.90842570  0.67981469  0.15380271     0.12300
H2157       H  0.88835983  0.73074905  0.20542495     0.12300
H2158       H  0.88364469  0.76406244  0.18355566     0.12000
H2159       H  0.88014993  0.77756085  0.15159762     0.12600
H2160       H  0.89815813  0.70959806  0.13166503     0.14500
C2161       C  0.95474007  0.75751369  0.07948740    -0.05500
C2162       C  0.95508359  0.73098159  0.08265703    -0.05400
C2163       C  0.98227116  0.73139913  0.08437868    -0.23600
C2164       C  0.50939170  0.75825719  0.08295103     0.18600
C2165       C  0.50915738  0.78473486  0.07870832     0.15800
C2166       C  0.98188007  0.78425050  0.07708433    -0.18600
C2167       C  0.53624920  0.81156154  0.07679699    -0.20400
C2168       C  0.56339838  0.81235256  0.07953171    -0.13000
C2169       C  0.56387661  0.78635092  0.08430296     0.03700
C2170       C  0.53675445  0.75926117  0.08579023    -0.25100
H2171       H  0.93436963  0.71016676  0.08465144     0.08700
H2172       H  0.98204593  0.71081913  0.08739011     0.12300
H2173       H  0.98174801  0.80479060  0.07450964     0.12300
H2174       H  0.53643625  0.83201055  0.07342031     0.12000
H2175       H  0.58403411  0.83342037  0.07811708     0.12600
H2176       H  0.53690871  0.73898610  0.08920886     0.14500
C2177       C  0.72048621  0.78888452  0.09374205    -0.05500
C2178       C  0.74762339  0.81482765  0.08955416    -0.05400
C2179       C  0.77449888  0.81438329  0.08896328    -0.23600
C2180       C  0.77473842  0.78790847  0.09238536     0.18600
C2181       C  0.74762593  0.76163598  0.09659520     0.15800
C2182       C  0.72072415  0.76233491  0.09738607    -0.18600
C2183       C  0.74784819  0.73502832  0.09963950    -0.20400
C2184       C  0.77461316  0.73438380  0.09830809    -0.13000
C2185       C  0.80169096  0.76040844  0.09416842     0.03700
C2186       C  0.80157707  0.78719016  0.09137840    -0.25100
H2187       H  0.74807290  0.83550966  0.08660977     0.08700
H2188       H  0.79506380  0.83469678  0.08562900     0.12300
H2189       H  0.69992745  0.74207795  0.10045862     0.12300
H2190       H  0.72727255  0.71464167  0.10283714     0.12000
H2191       H  0.77412893  0.71349418  0.10049926     0.12600
H2192       H  0.82226575  0.80735602  0.08797594     0.14500
C2193       C  0.87145603  0.77005465  0.03212077    -0.05500
C2194       C  0.84601064  0.74759018  0.02315185    -0.05400
C2195       C  0.84401663  0.74676176  0.00406970    -0.23600
C2196       C  0.86761470  0.76822677  0.99352118     0.18600
C2197       C  0.89286554  0.79197272  0.00216698     0.15800
C2198       C  0.89452373  0.79297182  0.02162230    -0.18600
C2199       C  0.91629242  0.81327498  0.99108476    -0.20400
C2200       C  0.91517899  0.81005622  0.97174488    -0.13000
C2201       C  0.89071108  0.78541371  0.96344159     0.03700
C2202       C  0.86670188  0.76531542  0.97440990    -0.25100
H2203       H  0.82785719  0.72998946  0.03094444     0.08700
H2204       H  0.82445021  0.72862966  0.99753870     0.12300
H2205       H  0.91426386  0.81035784  0.02845933     0.12300
H2206       H  0.93577575  0.83181727  0.99737852     0.12000
H2207       H  0.93378553  0.82595436  0.96342531     0.12600
H2208       H  0.84741602  0.74660571  0.96800069     0.14500
loop_ 
_geom_bond_atom_site_label_1 
_geom_bond_atom_site_label_2 
_geom_bond_distance 
_geom_bond_site_symmetry_2 
_ccdc_geom_bond_type 
O1            V9   1.904       .  S
O1           C11   1.266       .  A
O2            V9   1.899       .  S
O2           C12   1.264       .  A
O3            V9   1.887       .  S
O3           C13   1.261       .  A
O4            V9   1.885       .  S
O4           C14   1.263       .  A
O5           V10   1.913       .  S
O5           C14   1.266       .  A
O6           V10   1.914       .  S
O6           C13   1.268       .  A
O7           V10   1.890       .  S
O7           C12   1.263       .  A
O8           V10   1.897       .  S
O8           C11   1.264       .  A
V9           V10   2.086       .  T
C11         C529   1.480       .  S
C12         C505   1.470       .  S
C13         C497   1.473       .  S
C14         C537   1.475       .  S
O15          V23   1.906       .  S
O15          C25   1.267       .  A
O16          V23   1.902       .  S
O16          C26   1.266       .  A
O17          V23   1.883       .  S
O17          C27   1.259       .  A
O18          V23   1.876       .  S
O18          C28   1.261       .  A
O19          V24   1.920       .  S
O19          C28   1.267       .  A
O20          V24   1.917       .  S
O20          C27   1.270       .  A
O21          V24   1.887       .  S
O21          C26   1.262       .  A
O22          V24   1.890       .  S
O22          C25   1.262       .  A
V23          V24   2.087       .  T
C25         C441   1.479       .  S
C26         C457   1.472       .  S
C27         C481   1.475       .  S
C28         C545   1.472       .  S
O29          V37   1.902       .  S
O29          C39   1.266       .  A
O30          V37   1.891       .  S
O30          C40   1.263       .  A
O31          V37   1.900       .  S
O31          C41   1.264       .  A
O32          V37   1.895       .  S
O32          C42   1.264       .  A
O33          V38   1.913       .  S
O33          C42   1.266       .  A
O34          V38   1.915       .  S
O34          C41   1.269       .  A
O35          V38   1.897       .  S
O35          C40   1.265       .  A
O36          V38   1.899       .  S
O36          C39   1.264       .  A
V37          V38   2.087       .  T
C39         C521   1.482       .  S
C40         C513   1.473       .  S
C41         C417   1.485       .  S
C42         C433   1.475       .  S
O43          V51   1.909       .  S
O43          C53   1.268       .  A
O44          V51   1.909       .  S
O44          C54   1.267       .  A
O45          V51   1.880       .  S
O45          C55   1.259       .  A
O46          V51   1.880       .  S
O46          C56   1.261       .  A
O47          V52   1.925       .  S
O47          C56   1.270       .  A
O48          V52   1.927       .  S
O48          C55   1.272       .  A
O49          V52   1.879       .  S
O49          C54   1.260       .  A
O50          V52   1.886       .  S
O50          C53   1.261       .  A
V51          V52   2.085       .  T
C53         C449   1.476       .  S
C54         C465   1.471       .  S
C55         C401   1.481       .  S
C56         C425   1.478       .  S
O57          V65   1.911       .  S
O57          C67   1.268       .  A
O58          V65   1.910       .  S
O58          C68   1.268       .  A
O59          V65   1.876       .  S
O59          C69   1.258       .  A
O60          V65   1.876       .  S
O60          C70   1.259       .  A
O61          V66   1.921       .  S
O61          C70   1.268       .  A
O62          V66   1.924       .  S
O62          C69   1.270       .  A
O63          V66   1.891       .  S
O63          C68   1.262       .  A
O64          V66   1.898       .  S
O64          C67   1.264       .  A
V65          V66   2.087       .  T
C67         C345   1.487       .  S
C68         C369   1.477       .  S
C69         C473   1.475       .  S
C70         C377   1.470       .  S
O71          V79   1.906       .  S
O71          C81   1.267       .  A
O72          V79   1.898       .  S
O72          C82   1.265       .  A
O73          V79   1.890       .  S
O73          C83   1.261       .  A
O74          V79   1.888       .  S
O74          C84   1.262       .  A
O75          V80   1.912       .  S
O75          C84   1.266       .  A
O76          V80   1.912       .  S
O76          C83   1.269       .  A
O77          V80   1.885       .  S
O77          C82   1.261       .  A
O78          V80   1.884       .  S
O78          C81   1.261       .  A
V79          V80   2.088       .  T
C81         C313   1.473       .  S
C82         C305   1.464       .  S
C83         C329   1.479       .  S
C84         C385   1.470       .  S
O85          V93   1.919       .  S
O85          C95   1.269       .  A
O86          V93   1.914       .  S
O86          C96   1.269       .  A
O87          V93   1.893       .  S
O87          C97   1.261       .  A
O88          V93   1.887       .  S
O88          C98   1.262       .  A
O89          V94   1.918       .  S
O89          C98   1.267       .  A
O90          V94   1.916       .  S
O90          C97   1.270       .  A
O91          V94   1.887       .  S
O91          C96   1.262       .  A
O92          V94   1.891       .  S
O92          C95   1.263       .  A
V93          V94   2.084       .  T
C95         C353   1.485       .  S
C96         C361   1.481       .  S
C97         C393   1.481       .  S
C98         C281   1.476       .  S
O99         V107   1.907       .  S
O99         C109   1.267       .  A
O100        V107   1.899       .  S
O100        C110   1.266       .  A
O101        V107   1.883       .  S
O101        C111   1.260       .  A
O102        V107   1.880       .  S
O102        C112   1.260       .  A
O103        V108   1.923       .  S
O103        C112   1.269       .  A
O104        V108   1.923       .  S
O104        C111   1.271       .  A
O105        V108   1.884       .  S
O105        C110   1.260       .  A
O106        V108   1.883       .  S
O106        C109   1.261       .  A
V107        V108   2.087       .  T
C109        C321   1.473       .  S
C110        C297   1.470       .  S
C111        C265   1.481       .  S
C112        C289   1.476       .  S
O113        V121   1.918       .  S
O113        C123   1.270       .  A
O114        V121   1.918       .  S
O114        C124   1.269       .  A
O115        V121   1.890       .  S
O115        C125   1.261       .  A
O116        V121   1.885       .  S
O116        C126   1.260       .  A
O117        V122   1.923       .  S
O117        C126   1.269       .  A
O118        V122   1.926       .  S
O118        C125   1.272       .  A
O119        V122   1.881       .  S
O119        C124   1.260       .  A
O120        V122   1.887       .  S
O120        C123   1.261       .  A
V121        V122   2.085       .  T
C123        C225   1.483       .  S
C124        C233   1.480       .  S
C125        C409   1.487       .  S
C126        C249   1.474       .  S
O127        V135   1.903       .  S
O127        C137   1.265       .  A
O128        V135   1.895       .  S
O128        C138   1.264       .  A
O129        V135   1.895       .  S
O129        C139   1.262       .  A
O130        V135   1.894       .  S
O130        C140   1.263       .  A
O131        V136   1.912       .  S
O131        C140   1.266       .  A
O132        V136   1.914       .  S
O132        C139   1.269       .  A
O133        V136   1.883       .  S
O133        C138   1.261       .  A
O134        V136   1.881       .  S
O134        C137   1.260       .  A
V135        V136   2.088       .  T
C137        C201   1.464       .  S
C138        C193   1.466       .  S
C139        C273   1.483       .  S
C140        C257   1.471       .  S
O141        V149   1.916       .  S
O141        C151   1.269       .  A
O142        V149   1.911       .  S
O142        C152   1.268       .  A
O143        V149   1.882       .  S
O143        C153   1.260       .  A
O144        V149   1.881       .  S
O144        C154   1.261       .  A
O145        V150   1.918       .  S
O145        C154   1.268       .  A
O146        V150   1.919       .  S
O146        C153   1.270       .  A
O147        V150   1.887       .  S
O147        C152   1.261       .  A
O148        V150   1.891       .  S
O148        C151   1.263       .  A
V149        V150   2.086       .  T
C151        C217   1.486       .  S
C152        C241   1.478       .  S
C153        C489   1.479       .  S
C154        C169   1.477       .  S
O155        V163   1.897       .  S
O155        C165   1.266       .  A
O156        V163   1.896       .  S
O156        C166   1.263       .  A
O157        V163   1.884       .  S
O157        C167   1.261       .  A
O158        V163   1.883       .  S
O158        C168   1.261       .  A
O159        V164   1.917       .  S
O159        C168   1.267       .  A
O160        V164   1.917       .  S
O160        C167   1.268       .  A
O161        V164   1.882       .  S
O161        C166   1.262       .  A
O162        V164   1.888       .  S
O162        C165   1.261       .  A
V163        V164   2.088       .  T
C165        C209   1.472       .  S
C166        C185   1.464       .  S
C167        C337   1.476       .  S
C168        C177   1.473       .  S
C169        C170   1.405       .  A
C169        C174   1.409       .  A
C170        C171   1.390       .  A
C170        H179   1.084       .  S
C171        C172   1.398       .  A
C171        H180   1.084       .  S
C172        C178   1.396       .  A
C172        C173   1.414       .  A
C173        C175   1.408       .  A
C173        C174   1.411       .  A
C174        H181   1.084       .  S
C175        C176   1.406       .  A
C175        H182   1.083       .  S
C176        C177   1.403       .  A
C176        H183   1.083       .  S
C177        C178   1.402       .  A
C178        H184   1.085       .  S
C185        C186   1.403       .  A
C185        C190   1.402       .  A
C186        C187   1.396       .  A
C186        H195   1.083       .  S
C187        C188   1.403       .  A
C187        H196   1.084       .  S
C188        C189   1.413       .  A
C188        C746   1.397       .  A
C189        C191   1.400       .  A
C189        C190   1.393       .  A
C190        H197   1.085       .  S
C191        C744   1.392   1_545  A
C191        H198   1.084       .  S
C192        C193   1.403       .  A
C192        C743   1.392       .  A
C192        H199   1.083       .  S
C193        C194   1.405       .  A
C194        C740   1.397       .  A
C194        H200   1.085       .  S
C201        C202   1.403       .  A
C201        C206   1.402       .  A
C202        C203   1.391       .  A
C202        H211   1.083       .  S
C203        C204   1.398       .  A
C203        H212   1.084       .  S
C204        C205   1.416       .  A
C204       C1314   1.397   1_455  A
C205        C206   1.403       .  A
C205       C1311   1.401       .  A
C206        H213   1.085       .  S
C207        C208   1.397       .  A
C207       C1309   1.401       .  A
C207       H1318   1.084       .  S
C208        C209   1.407       .  A
C208        H215   1.083       .  S
C209        C210   1.401       .  A
C210       C1308   1.397       .  A
C210        H216   1.085       .  S
H214       C1311   1.084       .  S
C217        C218   1.409       .  A
C217        C222   1.406       .  A
C218        C219   1.397       .  A
C218        H227   1.083       .  S
C219        C220   1.399       .  A
C219        H228   1.084       .  S
C220        C221   1.416       .  A
C220        C778   1.408       .  A
C221        C223   1.400       .  A
C221        C222   1.409       .  A
C222        H229   1.085       .  S
C223        C776   1.397       .  A
C223        H230   1.084       .  S
C224        C225   1.409       .  A
C224        C775   1.397       .  A
C224        H231   1.083       .  S
C225        C226   1.404       .  A
C226        C772   1.408       .  A
C226        H232   1.084       .  S
C233        C234   1.404       .  A
C233        C238   1.408       .  A
C234        C235   1.401       .  A
C234        H243   1.083       .  S
C235        C236   1.406       .  A
C235        H244   1.084       .  S
C236        C237   1.411       .  A
C236       C1346   1.404   1_455  A
C237        C238   1.400       .  A
C237       C1343   1.403   1_455  A
C238        H245   1.085       .  S
C239        C240   1.397       .  A
C239       C1341   1.403       .  A
C239        H246   1.084       .  S
C240        C241   1.403       .  A
C240        H247   1.083       .  S
C241        C242   1.410       .  A
C242       C1340   1.404       .  A
C242        H248   1.085       .  S
C249        C250   1.404       .  A
C249        C254   1.406       .  A
C250        C251   1.394       .  A
C250        H259   1.084       .  S
C251        C252   1.400       .  A
C251        H260   1.084       .  S
C252        C258   1.403       .  A
C252        C253   1.416       .  A
C253        C255   1.406       .  A
C253        C254   1.412       .  A
C254        H261   1.084       .  S
C255        C256   1.403       .  A
C255        H262   1.083       .  S
C256        C257   1.403       .  A
C256        H263   1.083       .  S
C257        C258   1.401       .  A
C258        H264   1.085       .  S
C265        C266   1.403       .  A
C265        C270   1.409       .  A
C266        C267   1.404       .  A
C266        H275   1.083       .  S
C267        C268   1.407       .  A
C267        H276   1.084       .  S
C268        C274   1.407       .  A
C268        C269   1.411       .  A
C269        C271   1.404       .  A
C269        C270   1.403       .  A
C270        H277   1.085       .  S
C271        C272   1.399       .  A
C271        H278   1.084       .  S
C272        C273   1.404       .  A
C272        H279   1.083       .  S
C273        C274   1.411       .  A
C274        H280   1.084       .  S
C281        C282   1.403       .  A
C281        C286   1.410       .  A
C282        C283   1.390       .  A
C282        H291   1.084       .  S
C283        C284   1.398       .  A
C283        H292   1.084       .  S
C284        C290   1.397       .  A
C284        C285   1.414       .  A
C285        C287   1.409       .  A
C285        C286   1.414       .  A
C286        H293   1.084       .  S
C287        C288   1.408       .  A
C287        H294   1.083       .  S
C288        C289   1.404       .  A
C288        H295   1.083       .  S
C289        C290   1.401       .  A
C290        H296   1.085       .  S
C297        C298   1.406       .  A
C297        C302   1.402       .  A
C298        C851   1.393       .  A
C298        H307   1.083       .  S
C299        C300   1.399       .  A
C299        C850   1.393       .  A
C299        H308   1.084       .  S
C300        C306   1.399       .  A
C300        C301   1.415       .  A
C301        C303   1.400       .  A
C301        C854   1.399   1_545  A
C302        C853   1.399       .  A
C302        H309   1.084       .  S
C303        C304   1.393       .  A
C303        H310   1.084   1_545  S
C304        C305   1.404       .  A
C304        H311   1.083       .  S
C305        C306   1.400       .  A
C306        H312   1.085       .  S
C313        C314   1.403       .  A
C313        C318   1.407       .  A
C314        C315   1.397       .  A
C314        H323   1.083       .  S
C315        C316   1.403       .  A
C315        H324   1.084       .  S
C316        C322   1.399       .  A
C316        C317   1.412       .  A
C317        C319   1.404       .  A
C317        C318   1.399       .  A
C318        H325   1.085       .  S
C319        C320   1.397       .  A
C319        H326   1.084       .  S
C320        C321   1.403       .  A
C320        H327   1.083       .  S
C321        C322   1.407       .  A
C322        H328   1.085       .  S
C329        C330   1.403       .  A
C329        C334   1.411       .  A
C330        C331   1.397       .  A
C330        H339   1.083       .  S
C331        C332   1.403       .  A
C331        H340   1.084       .  S
C332        C338   1.400       .  A
C332        C333   1.412       .  A
C333        C335   1.407       .  A
C333        C334   1.406       .  A
C334        H341   1.084       .  S
C335        C336   1.403       .  A
C335        H342   1.084       .  S
C336        C337   1.402       .  A
C336        H343   1.083       .  S
C337        C338   1.407       .  A
C338        H344   1.085       .  S
C345        C346   1.409       .  A
C345        C350   1.405       .  A
C346        C347   1.401   1_545  A
C346        H355   1.083       .  S
C347        C348   1.402       .  A
C347        H356   1.084       .  S
C348        C349   1.415   1_565  A
C348        C906   1.412       .  A
C349        C351   1.399       .  A
C349        C350   1.406       .  A
C350        H357   1.084       .  S
C351        C904   1.395   1_545  A
C351        H358   1.084       .  S
C352        C353   1.408       .  A
C352        C903   1.395       .  A
C352        H359   1.083       .  S
C353        C354   1.408       .  A
C354        C900   1.412       .  A
C354        H360   1.084       .  S
C361        C362   1.404       .  A
C361        C366   1.409       .  A
C362        C363   1.400       .  A
C362        H371   1.083       .  S
C363        C364   1.404       .  A
C363        H372   1.083       .  S
C364        C370   1.404       .  A
C364        C365   1.412       .  A
C365        C367   1.404       .  A
C365        C366   1.402       .  A
C366        H373   1.084       .  S
C367        C368   1.398       .  A
C367        H374   1.083       .  S
C368        C369   1.403       .  A
C368        H375   1.083       .  S
C369        C370   1.408       .  A
C370        H376   1.084       .  S
C377        C378   1.403       .  A
C377        C382   1.407       .  A
C378        C379   1.390       .  A
C378        H387   1.084       .  S
C379        C380   1.398       .  A
C379        H388   1.084       .  S
C380        C386   1.397       .  A
C380        C381   1.415       .  A
C381        C383   1.408       .  A
C381        C382   1.411       .  A
C382        H389   1.084       .  S
C383        C384   1.405       .  A
C383        H390   1.083       .  S
C384        C385   1.403       .  A
C384        H391   1.083       .  S
C385        C386   1.400       .  A
C386        H392   1.085       .  S
C393        C394   1.402       .  A
C393        C398   1.411       .  A
C394        C395   1.399       .  A
C394        H403   1.083       .  S
C395        C396   1.404       .  A
C395        H404   1.084       .  S
C396        C402   1.402       .  A
C396        C397   1.411       .  A
C397        C399   1.408       .  A
C397        C398   1.408       .  A
C398        H405   1.084       .  S
C399        C400   1.404       .  A
C399        H406   1.084       .  S
C400        C401   1.403       .  A
C400        H407   1.083       .  S
C401        C402   1.409       .  A
C402        H408   1.085       .  S
C409        C410   1.404       .  A
C409        C414   1.411       .  A
C410        C411   1.404       .  A
C410        H419   1.083       .  S
C411        C412   1.407       .  A
C411        H420   1.083       .  S
C412        C418   1.410       .  A
C412        C413   1.412       .  A
C413        C415   1.405       .  A
C413        C414   1.407       .  A
C414        H421   1.084       .  S
C415        C416   1.401       .  A
C415        H422   1.084       .  S
C416        C417   1.404       .  A
C416        H423   1.083       .  S
C417        C418   1.411       .  A
C418        H424   1.084       .  S
C425        C426   1.405       .  A
C425        C430   1.409       .  A
C426        C427   1.391       .  A
C426        H435   1.084       .  S
C427        C428   1.398   1_556  A
C427        H436   1.084   1_556  S
C428        C434   1.400       .  A
C428        C429   1.415       .  A
C429        C431   1.408       .  A
C429        C430   1.414   1_554  A
C430        H437   1.084       .  S
C431        C432   1.407       .  A
C431        H438   1.083       .  S
C432        C433   1.404       .  A
C432        H439   1.083       .  S
C433        C434   1.401       .  A
C434        H440   1.085       .  S
C441        C442   1.407       .  A
C441        C446   1.404       .  A
C442       C1547   1.396       .  A
C442        H451   1.083       .  S
C443        C444   1.400       .  A
C443       C1546   1.396   1_455  A
C443        H452   1.084       .  S
C444        C450   1.404       .  A
C444        C445   1.415   1_455  A
C445        C447   1.400       .  A
C445       C1550   1.404       .  A
C446       C1549   1.403       .  A
C446        H453   1.084       .  S
C447        C448   1.395   1_655  A
C447        H454   1.084       .  S
C448        C449   1.407       .  A
C448        H455   1.083       .  S
C449        C450   1.403       .  A
C450        H456   1.084       .  S
C457        C458   1.403       .  A
C457        C462   1.407       .  A
C458        C459   1.395       .  A
C458        H467   1.083       .  S
C459        C460   1.402       .  A
C459        H468   1.083       .  S
C460        C466   1.397       .  A
C460        C461   1.412       .  A
C461        C463   1.404       .  A
C461        C462   1.400       .  A
C462        H469   1.084       .  S
C463        C464   1.398       .  A
C463        H470   1.083       .  S
C464        C465   1.403       .  A
C464        H471   1.083       .  S
C465        C466   1.406       .  A
C466        H472   1.084       .  S
C473        C474   1.402       .  A
C473        C478   1.408       .  A
C474        C475   1.403       .  A
C474        H483   1.083       .  S
C475        C476   1.408       .  A
C475        H484   1.083       .  S
C476        C482   1.404       .  A
C476        C477   1.411       .  A
C477        C479   1.405       .  A
C477        C478   1.399       .  A
C478        H485   1.085       .  S
C479        C480   1.398       .  A
C479        H486   1.083       .  S
C480        C481   1.401       .  A
C480        H487   1.083       .  S
C481        C482   1.411       .  A
C482        H488   1.084       .  S
C489        C490   1.403       .  A
C489        C494   1.409       .  A
C490        C491   1.401       .  A
C490        H499   1.083       .  S
C491        C492   1.406       .  A
C491        H500   1.084       .  S
C492        C498   1.403       .  A
C492        C493   1.412       .  A
C493        C495   1.405       .  A
C493        C494   1.401       .  A
C494        H501   1.084       .  S
C495        C496   1.399       .  A
C495        H502   1.084       .  S
C496        C497   1.401       .  A
C496        H503   1.083       .  S
C497        C498   1.408       .  A
C498        H504   1.085       .  S
C505        C506   1.404       .  A
C505        C510   1.403       .  A
C506        C507   1.396       .  A
C506        H515   1.083       .  S
C507       C1612   1.402       .  A
C507        H516   1.084       .  S
C508        C514   1.401       .  A
C508        C509   1.414       .  A
C508       C1611   1.402   1_455  A
C509        C511   1.400       .  A
C509       C1614   1.399   1_455  A
C510       C1613   1.398       .  A
C510        H517   1.085       .  S
C511        C512   1.394       .  A
C511        H518   1.084       .  S
C512        C513   1.405       .  A
C512        H519   1.083       .  S
C513        C514   1.405       .  A
C514        H520   1.085       .  S
C521        C522   1.406       .  A
C521        C526   1.409       .  A
C522        C523   1.397       .  A
C522        H531   1.083       .  S
C523        C524   1.402       .  A
C523        H532   1.084       .  S
C524        C530   1.404       .  A
C524        C525   1.413       .  A
C525        C527   1.403       .  A
C525        C526   1.406       .  A
C526        H533   1.084       .  S
C527        C528   1.399       .  A
C527        H534   1.084       .  S
C528        C529   1.405       .  A
C528        H535   1.083       .  S
C529        C530   1.407       .  A
C530        H536   1.084       .  S
C537        C538   1.403       .  A
C537        C542   1.412       .  A
C538        C539   1.387       .  A
C538        H547   1.084       .  S
C539        C540   1.396   1_554  A
C539        H548   1.084   1_554  S
C540        C546   1.391       .  A
C540        C541   1.413   1_556  A
C541        C543   1.411   1_554  A
C541        C542   1.412       .  A
C542        H549   1.084       .  S
C543        C544   1.409       .  A
C543        H550   1.083       .  S
C544        C545   1.404       .  A
C544        H551   1.083       .  S
C545        C546   1.400       .  A
C546        H552   1.086       .  S
O553        V561   1.904       .  S
O553        C563   1.266       .  A
O554        V561   1.899       .  S
O554        C564   1.264       .  A
O555        V561   1.887       .  S
O555        C565   1.261       .  A
O556        V561   1.885       .  S
O556        C566   1.263       .  A
O557        V562   1.913       .  S
O557        C566   1.266       .  A
O558        V562   1.914       .  S
O558        C565   1.268       .  A
O559        V562   1.890       .  S
O559        C564   1.263       .  A
O560        V562   1.898       .  S
O560        C563   1.264       .  A
V561        V562   2.086       .  T
C563       C1081   1.480       .  S
C564       C1057   1.470       .  S
C565       C1049   1.473       .  S
C566       C1089   1.475       .  S
O567        V575   1.906       .  S
O567        C577   1.267       .  A
O568        V575   1.902       .  S
O568        C578   1.266       .  A
O569        V575   1.883       .  S
O569        C579   1.259       .  A
O570        V575   1.876       .  S
O570        C580   1.261       .  A
O571        V576   1.920       .  S
O571        C580   1.267       .  A
O572        V576   1.917       .  S
O572        C579   1.270       .  A
O573        V576   1.887       .  S
O573        C578   1.262       .  A
O574        V576   1.890       .  S
O574        C577   1.262       .  A
V575        V576   2.087       .  T
C577        C993   1.479       .  S
C578       C1009   1.472       .  S
C579       C1033   1.475       .  S
C580       C1097   1.472       .  S
O581        V589   1.902       .  S
O581        C591   1.266       .  A
O582        V589   1.891       .  S
O582        C592   1.263       .  A
O583        V589   1.900       .  S
O583        C593   1.264       .  A
O584        V589   1.895       .  S
O584        C594   1.264       .  A
O585        V590   1.913       .  S
O585        C594   1.266       .  A
O586        V590   1.915       .  S
O586        C593   1.269       .  A
O587        V590   1.897       .  S
O587        C592   1.265       .  A
O588        V590   1.899       .  S
O588        C591   1.264       .  A
V589        V590   2.087       .  T
C591       C1073   1.482       .  S
C592       C1065   1.472       .  S
C593        C969   1.485       .  S
C594        C985   1.475       .  S
O595        V603   1.909       .  S
O595        C605   1.268       .  A
O596        V603   1.909       .  S
O596        C606   1.267       .  A
O597        V603   1.880       .  S
O597        C607   1.259       .  A
O598        V603   1.880       .  S
O598        C608   1.261       .  A
O599        V604   1.926       .  S
O599        C608   1.270       .  A
O600        V604   1.927       .  S
O600        C607   1.272       .  A
O601        V604   1.879       .  S
O601        C606   1.260       .  A
O602        V604   1.887       .  S
O602        C605   1.261       .  A
V603        V604   2.085       .  T
C605       C1001   1.476       .  S
C606       C1017   1.471       .  S
C607        C953   1.481       .  S
C608        C977   1.478       .  S
O609        V617   1.911       .  S
O609        C619   1.268       .  A
O610        V617   1.910       .  S
O610        C620   1.268       .  A
O611        V617   1.876       .  S
O611        C621   1.258       .  A
O612        V617   1.876       .  S
O612        C622   1.259       .  A
O613        V618   1.921       .  S
O613        C622   1.268       .  A
O614        V618   1.924       .  S
O614        C621   1.270       .  A
O615        V618   1.891       .  S
O615        C620   1.262       .  A
O616        V618   1.898       .  S
O616        C619   1.264       .  A
V617        V618   2.087       .  T
C619        C897   1.487       .  S
C620        C921   1.477       .  S
C621       C1025   1.475       .  S
C622        C929   1.470       .  S
O623        V631   1.906       .  S
O623        C633   1.267       .  A
O624        V631   1.898       .  S
O624        C634   1.265       .  A
O625        V631   1.890       .  S
O625        C635   1.261       .  A
O626        V631   1.888       .  S
O626        C636   1.262       .  A
O627        V632   1.912       .  S
O627        C636   1.266       .  A
O628        V632   1.912       .  S
O628        C635   1.269       .  A
O629        V632   1.885       .  S
O629        C634   1.261       .  A
O630        V632   1.884       .  S
O630        C633   1.261       .  A
V631        V632   2.088       .  T
C633        C865   1.473       .  S
C634        C857   1.464       .  S
C635        C881   1.479       .  S
C636        C937   1.470       .  S
O637        V645   1.919       .  S
O637        C647   1.269       .  A
O638        V645   1.914       .  S
O638        C648   1.269       .  A
O639        V645   1.893       .  S
O639        C649   1.261       .  A
O640        V645   1.887       .  S
O640        C650   1.262       .  A
O641        V646   1.918       .  S
O641        C650   1.267       .  A
O642        V646   1.916       .  S
O642        C649   1.270       .  A
O643        V646   1.887       .  S
O643        C648   1.262       .  A
O644        V646   1.891       .  S
O644        C647   1.263       .  A
V645        V646   2.084       .  T
C647        C905   1.485       .  S
C648        C913   1.481       .  S
C649        C945   1.481       .  S
C650        C833   1.476       .  S
O651        V659   1.907       .  S
O651        C661   1.267       .  A
O652        V659   1.899       .  S
O652        C662   1.266       .  A
O653        V659   1.883       .  S
O653        C663   1.260       .  A
O654        V659   1.880       .  S
O654        C664   1.260       .  A
O655        V660   1.923       .  S
O655        C664   1.269       .  A
O656        V660   1.923       .  S
O656        C663   1.271       .  A
O657        V660   1.884       .  S
O657        C662   1.260       .  A
O658        V660   1.883       .  S
O658        C661   1.261       .  A
V659        V660   2.087       .  T
C661        C873   1.472       .  S
C662        C849   1.470       .  S
C663        C817   1.481       .  S
C664        C841   1.476       .  S
O665        V673   1.918       .  S
O665        C675   1.270       .  A
O666        V673   1.918       .  S
O666        C676   1.269       .  A
O667        V673   1.890       .  S
O667        C677   1.261       .  A
O668        V673   1.885       .  S
O668        C678   1.260       .  A
O669        V674   1.922       .  S
O669        C678   1.269       .  A
O670        V674   1.925       .  S
O670        C677   1.272       .  A
O671        V674   1.881       .  S
O671        C676   1.260       .  A
O672        V674   1.887       .  S
O672        C675   1.261       .  A
V673        V674   2.085       .  T
C675        C777   1.483       .  S
C676        C785   1.480       .  S
C677        C961   1.487       .  S
C678        C801   1.474       .  S
O679        V687   1.903       .  S
O679        C689   1.265       .  A
O680        V687   1.895       .  S
O680        C690   1.264       .  A
O681        V687   1.894       .  S
O681        C691   1.262       .  A
O682        V687   1.894       .  S
O682        C692   1.263       .  A
O683        V688   1.912       .  S
O683        C692   1.266       .  A
O684        V688   1.914       .  S
O684        C691   1.269       .  A
O685        V688   1.883       .  S
O685        C690   1.261       .  A
O686        V688   1.881       .  S
O686        C689   1.260       .  A
V687        V688   2.088       .  T
C689        C753   1.464       .  S
C690        C745   1.466       .  S
C691        C825   1.483       .  S
C692        C809   1.471       .  S
O693        V701   1.916       .  S
O693        C703   1.269       .  A
O694        V701   1.911       .  S
O694        C704   1.268       .  A
O695        V701   1.882       .  S
O695        C705   1.260       .  A
O696        V701   1.881       .  S
O696        C706   1.261       .  A
O697        V702   1.918       .  S
O697        C706   1.268       .  A
O698        V702   1.919       .  S
O698        C705   1.270       .  A
O699        V702   1.887       .  S
O699        C704   1.261       .  A
O700        V702   1.891       .  S
O700        C703   1.263       .  A
V701        V702   2.086       .  T
C703        C769   1.486       .  S
C704        C793   1.478       .  S
C705       C1041   1.479       .  S
C706        C721   1.477       .  S
O707        V715   1.897       .  S
O707        C717   1.266       .  A
O708        V715   1.896       .  S
O708        C718   1.263       .  A
O709        V715   1.884       .  S
O709        C719   1.261       .  A
O710        V715   1.883       .  S
O710        C720   1.261       .  A
O711        V716   1.917       .  S
O711        C720   1.267       .  A
O712        V716   1.917       .  S
O712        C719   1.268       .  A
O713        V716   1.882       .  S
O713        C718   1.262       .  A
O714        V716   1.888       .  S
O714        C717   1.261       .  A
V715        V716   2.088       .  T
C717        C761   1.472       .  S
C718        C737   1.464       .  S
C719        C889   1.476       .  S
C720        C729   1.473       .  S
C721        C722   1.405       .  A
C721        C726   1.409       .  A
C722        C723   1.390       .  A
C722        H731   1.084       .  S
C723        C724   1.398       .  A
C723        H732   1.084       .  S
C724        C730   1.396       .  A
C724        C725   1.414       .  A
C725        C727   1.408       .  A
C725        C726   1.411       .  A
C726        H733   1.084       .  S
C727        C728   1.406       .  A
C727        H734   1.083       .  S
C728        C729   1.403       .  A
C728        H735   1.083       .  S
C729        C730   1.402       .  A
C730        H736   1.085       .  S
C737        C738   1.403       .  A
C737        C742   1.402       .  A
C738        C739   1.396       .  A
C738        H747   1.083       .  S
C739        C740   1.403       .  A
C739        H748   1.084       .  S
C740        C741   1.413       .  A
C741        C743   1.400       .  A
C741        C742   1.393       .  A
C742        H749   1.085       .  S
C743        H750   1.084       .  S
C744        C745   1.403       .  A
C744        H751   1.083       .  S
C745        C746   1.405   1_565  A
C746        H752   1.085       .  S
C753        C754   1.403       .  A
C753        C758   1.402       .  A
C754        C755   1.391       .  A
C754        H763   1.083       .  S
C755        C756   1.398       .  A
C755        H764   1.084       .  S
C756       C1866   1.397   1_455  A
C756        C757   1.416       .  A
C757       C1863   1.401       .  A
C757        C758   1.403       .  A
C758        H765   1.085       .  S
C759       C1861   1.401       .  A
C759        C760   1.397       .  A
C759       H1870   1.084       .  S
C760        C761   1.407       .  A
C760        H767   1.083       .  S
C761        C762   1.401       .  A
C762       C1860   1.397       .  A
C762        H768   1.085       .  S
H766       C1863   1.084       .  S
C769        C770   1.409       .  A
C769        C774   1.406       .  A
C770        C771   1.397       .  A
C770        H779   1.083       .  S
C771        C772   1.399       .  A
C771        H780   1.084       .  S
C772        C773   1.416       .  A
C773        C775   1.400       .  A
C773        C774   1.409       .  A
C774        H781   1.085       .  S
C775        H782   1.084       .  S
C776        C777   1.409   1_545  A
C776        H783   1.083       .  S
C777        C778   1.404   1_565  A
C778        H784   1.084   1_545  S
C785        C786   1.404       .  A
C785        C790   1.408       .  A
C786        C787   1.401       .  A
C786        H795   1.083       .  S
C787        C788   1.406       .  A
C787        H796   1.084       .  S
C788       C1898   1.404   1_455  A
C788        C789   1.411       .  A
C789       C1895   1.403   1_455  A
C789        C790   1.400       .  A
C790        H797   1.085       .  S
C791       C1893   1.403       .  A
C791        C792   1.397       .  A
C791        H798   1.084       .  S
C792        C793   1.403       .  A
C792        H799   1.083       .  S
C793        C794   1.410       .  A
C794       C1892   1.404       .  A
C794        H800   1.085       .  S
C801        C802   1.404       .  A
C801        C806   1.406       .  A
C802        C803   1.394       .  A
C802        H811   1.084       .  S
C803        C804   1.400       .  A
C803        H812   1.084       .  S
C804        C810   1.403       .  A
C804        C805   1.416       .  A
C805        C807   1.406       .  A
C805        C806   1.412       .  A
C806        H813   1.084       .  S
C807        C808   1.403       .  A
C807        H814   1.083       .  S
C808        C809   1.403       .  A
C808        H815   1.083       .  S
C809        C810   1.401       .  A
C810        H816   1.085       .  S
C817        C818   1.403       .  A
C817        C822   1.409       .  A
C818        C819   1.404       .  A
C818        H827   1.083       .  S
C819        C820   1.407       .  A
C819        H828   1.084       .  S
C820        C826   1.407       .  A
C820        C821   1.411       .  A
C821        C823   1.404       .  A
C821        C822   1.402       .  A
C822        H829   1.085       .  S
C823        C824   1.399       .  A
C823        H830   1.084       .  S
C824        C825   1.404       .  A
C824        H831   1.083       .  S
C825        C826   1.411       .  A
C826        H832   1.084       .  S
C833        C834   1.403       .  A
C833        C838   1.410       .  A
C834        C835   1.390       .  A
C834        H843   1.084       .  S
C835        C836   1.398       .  A
C835        H844   1.084       .  S
C836        C842   1.397       .  A
C836        C837   1.414       .  A
C837        C839   1.409       .  A
C837        C838   1.414       .  A
C838        H845   1.084       .  S
C839        C840   1.408       .  A
C839        H846   1.083       .  S
C840        C841   1.404       .  A
C840        H847   1.083       .  S
C841        C842   1.401       .  A
C842        H848   1.085       .  S
C849        C850   1.406   1_565  A
C849        C854   1.402       .  A
C850        H859   1.083   1_545  S
C851        C852   1.399       .  A
C851        H860   1.084       .  S
C852        C858   1.399       .  A
C852        C853   1.415       .  A
C853        C855   1.400       .  A
C854        H861   1.084       .  S
C855        C856   1.393       .  A
C855        H862   1.084       .  S
C856        C857   1.404       .  A
C856        H863   1.083       .  S
C857        C858   1.400       .  A
C858        H864   1.085       .  S
C865        C866   1.403       .  A
C865        C870   1.407       .  A
C866        C867   1.397       .  A
C866        H875   1.083       .  S
C867        C868   1.403       .  A
C867        H876   1.084       .  S
C868        C874   1.399       .  A
C868        C869   1.412       .  A
C869        C871   1.404       .  A
C869        C870   1.399       .  A
C870        H877   1.085       .  S
C871        C872   1.397       .  A
C871        H878   1.084       .  S
C872        C873   1.403       .  A
C872        H879   1.083       .  S
C873        C874   1.407       .  A
C874        H880   1.085       .  S
C881        C882   1.403       .  A
C881        C886   1.411       .  A
C882        C883   1.397       .  A
C882        H891   1.083       .  S
C883        C884   1.403       .  A
C883        H892   1.084       .  S
C884        C890   1.400       .  A
C884        C885   1.412       .  A
C885        C887   1.407       .  A
C885        C886   1.406       .  A
C886        H893   1.084       .  S
C887        C888   1.403       .  A
C887        H894   1.084       .  S
C888        C889   1.402       .  A
C888        H895   1.083       .  S
C889        C890   1.407       .  A
C890        H896   1.085       .  S
C897        C898   1.409       .  A
C897        C902   1.405       .  A
C898        C899   1.401       .  A
C898        H907   1.083       .  S
C899        C900   1.402       .  A
C899        H908   1.084       .  S
C900        C901   1.415       .  A
C901        C903   1.399       .  A
C901        C902   1.406       .  A
C902        H909   1.084       .  S
C903        H910   1.084       .  S
C904        C905   1.408       .  A
C904        H911   1.083       .  S
C905        C906   1.408       .  A
C906        H912   1.084       .  S
C913        C914   1.404       .  A
C913        C918   1.409       .  A
C914        C915   1.400       .  A
C914        H923   1.083       .  S
C915        C916   1.404       .  A
C915        H924   1.083       .  S
C916        C922   1.404       .  A
C916        C917   1.412       .  A
C917        C919   1.404       .  A
C917        C918   1.402       .  A
C918        H925   1.084       .  S
C919        C920   1.398       .  A
C919        H926   1.083       .  S
C920        C921   1.403       .  A
C920        H927   1.083       .  S
C921        C922   1.408       .  A
C922        H928   1.084       .  S
C929        C930   1.403       .  A
C929        C934   1.407       .  A
C930        C931   1.390       .  A
C930        H939   1.084       .  S
C931        C932   1.398       .  A
C931        H940   1.084       .  S
C932        C938   1.397       .  A
C932        C933   1.415       .  A
C933        C935   1.408       .  A
C933        C934   1.411       .  A
C934        H941   1.084       .  S
C935        C936   1.405       .  A
C935        H942   1.083       .  S
C936        C937   1.403       .  A
C936        H943   1.083       .  S
C937        C938   1.400       .  A
C938        H944   1.085       .  S
C945        C946   1.402       .  A
C945        C950   1.411       .  A
C946        C947   1.399       .  A
C946        H955   1.083       .  S
C947        C948   1.404       .  A
C947        H956   1.084       .  S
C948        C954   1.402       .  A
C948        C949   1.411       .  A
C949        C951   1.408       .  A
C949        C950   1.408       .  A
C950        H957   1.084       .  S
C951        C952   1.405       .  A
C951        H958   1.084       .  S
C952        C953   1.403       .  A
C952        H959   1.083       .  S
C953        C954   1.409       .  A
C954        H960   1.085       .  S
C961        C962   1.404       .  A
C961        C966   1.411       .  A
C962        C963   1.404       .  A
C962        H971   1.083       .  S
C963        C964   1.407       .  A
C963        H972   1.083       .  S
C964        C970   1.410       .  A
C964        C965   1.412       .  A
C965        C967   1.405       .  A
C965        C966   1.407       .  A
C966        H973   1.084       .  S
C967        C968   1.401       .  A
C967        H974   1.084       .  S
C968        C969   1.404       .  A
C968        H975   1.083       .  S
C969        C970   1.411       .  A
C970        H976   1.084       .  S
C977        C978   1.405       .  A
C977        C982   1.409       .  A
C978        C979   1.391       .  A
C978        H987   1.084       .  S
C979        C980   1.398   1_556  A
C979        H988   1.084   1_556  S
C980        C986   1.400       .  A
C980        C981   1.415       .  A
C981        C983   1.408       .  A
C981        C982   1.414   1_554  A
C982        H989   1.084       .  S
C983        C984   1.407       .  A
C983        H990   1.083       .  S
C984        C985   1.404       .  A
C984        H991   1.083       .  S
C985        C986   1.401       .  A
C986        H992   1.085       .  S
C993        C994   1.407       .  A
C993        C998   1.404       .  A
C994       C2099   1.396       .  A
C994       H1003   1.083       .  S
C995       C2098   1.396   1_455  A
C995        C996   1.400       .  A
C995       H1004   1.084       .  S
C996       C1002   1.404       .  A
C996        C997   1.415   1_455  A
C997        C999   1.400       .  A
C997       C2102   1.403       .  A
C998       C2101   1.403       .  A
C998       H1005   1.084       .  S
C999       C1000   1.395   1_655  A
C999       H1006   1.084       .  S
C1000      C1001   1.407       .  A
C1000      H1007   1.083       .  S
C1001      C1002   1.403       .  A
C1002      H1008   1.084       .  S
C1009      C1010   1.403       .  A
C1009      C1014   1.407       .  A
C1010      C1011   1.395       .  A
C1010      H1019   1.083       .  S
C1011      C1012   1.402       .  A
C1011      H1020   1.083       .  S
C1012      C1018   1.398       .  A
C1012      C1013   1.412       .  A
C1013      C1015   1.404       .  A
C1013      C1014   1.400       .  A
C1014      H1021   1.084       .  S
C1015      C1016   1.398       .  A
C1015      H1022   1.083       .  S
C1016      C1017   1.403       .  A
C1016      H1023   1.083       .  S
C1017      C1018   1.406       .  A
C1018      H1024   1.084       .  S
C1025      C1026   1.402       .  A
C1025      C1030   1.408       .  A
C1026      C1027   1.403       .  A
C1026      H1035   1.083       .  S
C1027      C1028   1.408       .  A
C1027      H1036   1.083       .  S
C1028      C1034   1.404       .  A
C1028      C1029   1.411       .  A
C1029      C1031   1.405       .  A
C1029      C1030   1.399       .  A
C1030      H1037   1.085       .  S
C1031      C1032   1.398       .  A
C1031      H1038   1.083       .  S
C1032      C1033   1.401       .  A
C1032      H1039   1.083       .  S
C1033      C1034   1.411       .  A
C1034      H1040   1.084       .  S
C1041      C1042   1.403       .  A
C1041      C1046   1.409       .  A
C1042      C1043   1.401       .  A
C1042      H1051   1.083       .  S
C1043      C1044   1.406       .  A
C1043      H1052   1.084       .  S
C1044      C1050   1.403       .  A
C1044      C1045   1.412       .  A
C1045      C1047   1.405       .  A
C1045      C1046   1.401       .  A
C1046      H1053   1.084       .  S
C1047      C1048   1.399       .  A
C1047      H1054   1.084       .  S
C1048      C1049   1.401       .  A
C1048      H1055   1.083       .  S
C1049      C1050   1.408       .  A
C1050      H1056   1.085       .  S
C1057      C1058   1.404       .  A
C1057      C1062   1.403       .  A
C1058      C1059   1.396       .  A
C1058      H1067   1.083       .  S
C1059      C2164   1.402       .  A
C1059      H1068   1.084       .  S
C1060      C2163   1.402   1_455  A
C1060      C1066   1.401       .  A
C1060      C1061   1.414       .  A
C1061      C1063   1.400       .  A
C1061      C2166   1.398   1_455  A
C1062      C2165   1.398       .  A
C1062      H1069   1.085       .  S
C1063      C1064   1.394       .  A
C1063      H1070   1.084       .  S
C1064      C1065   1.405       .  A
C1064      H1071   1.083       .  S
C1065      C1066   1.405       .  A
C1066      H1072   1.085       .  S
C1073      C1074   1.406       .  A
C1073      C1078   1.409       .  A
C1074      C1075   1.397       .  A
C1074      H1083   1.083       .  S
C1075      C1076   1.402       .  A
C1075      H1084   1.084       .  S
C1076      C1082   1.404       .  A
C1076      C1077   1.413       .  A
C1077      C1079   1.403       .  A
C1077      C1078   1.406       .  A
C1078      H1085   1.084       .  S
C1079      C1080   1.399       .  A
C1079      H1086   1.084       .  S
C1080      C1081   1.405       .  A
C1080      H1087   1.083       .  S
C1081      C1082   1.407       .  A
C1082      H1088   1.084       .  S
C1089      C1090   1.403       .  A
C1089      C1094   1.412       .  A
C1090      C1091   1.387       .  A
C1090      H1099   1.084       .  S
C1091      C1092   1.396   1_554  A
C1091      H1100   1.084   1_554  S
C1092      C1098   1.391       .  A
C1092      C1093   1.413   1_556  A
C1093      C1095   1.411   1_554  A
C1093      C1094   1.412       .  A
C1094      H1101   1.084       .  S
C1095      C1096   1.409       .  A
C1095      H1102   1.083       .  S
C1096      C1097   1.404       .  A
C1096      H1103   1.083       .  S
C1097      C1098   1.400       .  A
C1098      H1104   1.086       .  S
O1105      V1113   1.904       .  S
O1105      C1115   1.266       .  A
O1106      V1113   1.899       .  S
O1106      C1116   1.264       .  A
O1107      V1113   1.887       .  S
O1107      C1117   1.261       .  A
O1108      V1113   1.885       .  S
O1108      C1118   1.263       .  A
O1109      V1114   1.913       .  S
O1109      C1118   1.266       .  A
O1110      V1114   1.914       .  S
O1110      C1117   1.268       .  A
O1111      V1114   1.890       .  S
O1111      C1116   1.263       .  A
O1112      V1114   1.898       .  S
O1112      C1115   1.264       .  A
V1113      V1114   2.086       .  T
C1115      C1633   1.480       .  S
C1116      C1609   1.470       .  S
C1117      C1601   1.473       .  S
C1118      C1641   1.475       .  S
O1119      V1127   1.906       .  S
O1119      C1129   1.267       .  A
O1120      V1127   1.902       .  S
O1120      C1130   1.266       .  A
O1121      V1127   1.883       .  S
O1121      C1131   1.259       .  A
O1122      V1127   1.876       .  S
O1122      C1132   1.261       .  A
O1123      V1128   1.920       .  S
O1123      C1132   1.267       .  A
O1124      V1128   1.917       .  S
O1124      C1131   1.270       .  A
O1125      V1128   1.887       .  S
O1125      C1130   1.262       .  A
O1126      V1128   1.890       .  S
O1126      C1129   1.262       .  A
V1127      V1128   2.087       .  T
C1129      C1545   1.479       .  S
C1130      C1561   1.472       .  S
C1131      C1585   1.475       .  S
C1132      C1649   1.472       .  S
O1133      V1141   1.902       .  S
O1133      C1143   1.266       .  A
O1134      V1141   1.891       .  S
O1134      C1144   1.263       .  A
O1135      V1141   1.901       .  S
O1135      C1145   1.264       .  A
O1136      V1141   1.895       .  S
O1136      C1146   1.264       .  A
O1137      V1142   1.913       .  S
O1137      C1146   1.266       .  A
O1138      V1142   1.915       .  S
O1138      C1145   1.269       .  A
O1139      V1142   1.897       .  S
O1139      C1144   1.265       .  A
O1140      V1142   1.900       .  S
O1140      C1143   1.264       .  A
V1141      V1142   2.087       .  T
C1143      C1625   1.482       .  S
C1144      C1617   1.473       .  S
C1145      C1521   1.485       .  S
C1146      C1537   1.475       .  S
O1147      V1155   1.909       .  S
O1147      C1157   1.268       .  A
O1148      V1155   1.909       .  S
O1148      C1158   1.267       .  A
O1149      V1155   1.880       .  S
O1149      C1159   1.259       .  A
O1150      V1155   1.880       .  S
O1150      C1160   1.261       .  A
O1151      V1156   1.925       .  S
O1151      C1160   1.270       .  A
O1152      V1156   1.927       .  S
O1152      C1159   1.272       .  A
O1153      V1156   1.879       .  S
O1153      C1158   1.260       .  A
O1154      V1156   1.886       .  S
O1154      C1157   1.261       .  A
V1155      V1156   2.085       .  T
C1157      C1553   1.476       .  S
C1158      C1569   1.471       .  S
C1159      C1505   1.481       .  S
C1160      C1529   1.478       .  S
O1161      V1169   1.911       .  S
O1161      C1171   1.268       .  A
O1162      V1169   1.910       .  S
O1162      C1172   1.268       .  A
O1163      V1169   1.876       .  S
O1163      C1173   1.258       .  A
O1164      V1169   1.876       .  S
O1164      C1174   1.259       .  A
O1165      V1170   1.921       .  S
O1165      C1174   1.268       .  A
O1166      V1170   1.924       .  S
O1166      C1173   1.270       .  A
O1167      V1170   1.891       .  S
O1167      C1172   1.262       .  A
O1168      V1170   1.898       .  S
O1168      C1171   1.264       .  A
V1169      V1170   2.087       .  T
C1171      C1449   1.487       .  S
C1172      C1473   1.477       .  S
C1173      C1577   1.475       .  S
C1174      C1481   1.470       .  S
O1175      V1183   1.906       .  S
O1175      C1185   1.267       .  A
O1176      V1183   1.898       .  S
O1176      C1186   1.265       .  A
O1177      V1183   1.890       .  S
O1177      C1187   1.261       .  A
O1178      V1183   1.888       .  S
O1178      C1188   1.262       .  A
O1179      V1184   1.912       .  S
O1179      C1188   1.266       .  A
O1180      V1184   1.912       .  S
O1180      C1187   1.269       .  A
O1181      V1184   1.885       .  S
O1181      C1186   1.261       .  A
O1182      V1184   1.884       .  S
O1182      C1185   1.261       .  A
V1183      V1184   2.088       .  T
C1185      C1417   1.473       .  S
C1186      C1409   1.464       .  S
C1187      C1433   1.479       .  S
C1188      C1489   1.470       .  S
O1189      V1197   1.919       .  S
O1189      C1199   1.269       .  A
O1190      V1197   1.914       .  S
O1190      C1200   1.269       .  A
O1191      V1197   1.893       .  S
O1191      C1201   1.261       .  A
O1192      V1197   1.887       .  S
O1192      C1202   1.263       .  A
O1193      V1198   1.918       .  S
O1193      C1202   1.267       .  A
O1194      V1198   1.916       .  S
O1194      C1201   1.270       .  A
O1195      V1198   1.887       .  S
O1195      C1200   1.262       .  A
O1196      V1198   1.891       .  S
O1196      C1199   1.263       .  A
V1197      V1198   2.084       .  T
C1199      C1457   1.485       .  S
C1200      C1465   1.481       .  S
C1201      C1497   1.481       .  S
C1202      C1385   1.476       .  S
O1203      V1211   1.907       .  S
O1203      C1213   1.267       .  A
O1204      V1211   1.899       .  S
O1204      C1214   1.266       .  A
O1205      V1211   1.883       .  S
O1205      C1215   1.260       .  A
O1206      V1211   1.880       .  S
O1206      C1216   1.260       .  A
O1207      V1212   1.923       .  S
O1207      C1216   1.269       .  A
O1208      V1212   1.923       .  S
O1208      C1215   1.271       .  A
O1209      V1212   1.884       .  S
O1209      C1214   1.260       .  A
O1210      V1212   1.883       .  S
O1210      C1213   1.261       .  A
V1211      V1212   2.087       .  T
C1213      C1425   1.472       .  S
C1214      C1401   1.470       .  S
C1215      C1369   1.481       .  S
C1216      C1393   1.476       .  S
O1217      V1225   1.918       .  S
O1217      C1227   1.270       .  A
O1218      V1225   1.918       .  S
O1218      C1228   1.269       .  A
O1219      V1225   1.890       .  S
O1219      C1229   1.261       .  A
O1220      V1225   1.885       .  S
O1220      C1230   1.260       .  A
O1221      V1226   1.922       .  S
O1221      C1230   1.269       .  A
O1222      V1226   1.925       .  S
O1222      C1229   1.272       .  A
O1223      V1226   1.881       .  S
O1223      C1228   1.260       .  A
O1224      V1226   1.887       .  S
O1224      C1227   1.261       .  A
V1225      V1226   2.085       .  T
C1227      C1329   1.483       .  S
C1228      C1337   1.480       .  S
C1229      C1513   1.487       .  S
C1230      C1353   1.474       .  S
O1231      V1239   1.903       .  S
O1231      C1241   1.265       .  A
O1232      V1239   1.895       .  S
O1232      C1242   1.264       .  A
O1233      V1239   1.894       .  S
O1233      C1243   1.262       .  A
O1234      V1239   1.894       .  S
O1234      C1244   1.263       .  A
O1235      V1240   1.912       .  S
O1235      C1244   1.266       .  A
O1236      V1240   1.914       .  S
O1236      C1243   1.269       .  A
O1237      V1240   1.883       .  S
O1237      C1242   1.261       .  A
O1238      V1240   1.881       .  S
O1238      C1241   1.260       .  A
V1239      V1240   2.088       .  T
C1241      C1305   1.464       .  S
C1242      C1297   1.466       .  S
C1243      C1377   1.483       .  S
C1244      C1361   1.471       .  S
O1245      V1253   1.916       .  S
O1245      C1255   1.269       .  A
O1246      V1253   1.911       .  S
O1246      C1256   1.268       .  A
O1247      V1253   1.882       .  S
O1247      C1257   1.260       .  A
O1248      V1253   1.881       .  S
O1248      C1258   1.261       .  A
O1249      V1254   1.918       .  S
O1249      C1258   1.268       .  A
O1250      V1254   1.919       .  S
O1250      C1257   1.270       .  A
O1251      V1254   1.887       .  S
O1251      C1256   1.261       .  A
O1252      V1254   1.891       .  S
O1252      C1255   1.263       .  A
V1253      V1254   2.086       .  T
C1255      C1321   1.486       .  S
C1256      C1345   1.478       .  S
C1257      C1593   1.479       .  S
C1258      C1273   1.477       .  S
O1259      V1267   1.897       .  S
O1259      C1269   1.266       .  A
O1260      V1267   1.896       .  S
O1260      C1270   1.263       .  A
O1261      V1267   1.884       .  S
O1261      C1271   1.261       .  A
O1262      V1267   1.883       .  S
O1262      C1272   1.261       .  A
O1263      V1268   1.917       .  S
O1263      C1272   1.267       .  A
O1264      V1268   1.917       .  S
O1264      C1271   1.268       .  A
O1265      V1268   1.882       .  S
O1265      C1270   1.262       .  A
O1266      V1268   1.889       .  S
O1266      C1269   1.261       .  A
V1267      V1268   2.088       .  T
C1269      C1313   1.472       .  S
C1270      C1289   1.464       .  S
C1271      C1441   1.476       .  S
C1272      C1281   1.473       .  S
C1273      C1274   1.405       .  A
C1273      C1278   1.409       .  A
C1274      C1275   1.390       .  A
C1274      H1283   1.084       .  S
C1275      C1276   1.398       .  A
C1275      H1284   1.084       .  S
C1276      C1282   1.396       .  A
C1276      C1277   1.414       .  A
C1277      C1279   1.408       .  A
C1277      C1278   1.411       .  A
C1278      H1285   1.084       .  S
C1279      C1280   1.406       .  A
C1279      H1286   1.083       .  S
C1280      C1281   1.403       .  A
C1280      H1287   1.083       .  S
C1281      C1282   1.402       .  A
C1282      H1288   1.085       .  S
C1289      C1290   1.403       .  A
C1289      C1294   1.402       .  A
C1290      C1291   1.396       .  A
C1290      H1299   1.083       .  S
C1291      C1292   1.403       .  A
C1291      H1300   1.084       .  S
C1292      C1850   1.397       .  A
C1292      C1293   1.413       .  A
C1293      C1295   1.400       .  A
C1293      C1294   1.393       .  A
C1294      H1301   1.085       .  S
C1295      C1848   1.392   1_545  A
C1295      H1302   1.084       .  S
C1296      C1847   1.392       .  A
C1296      C1297   1.403       .  A
C1296      H1303   1.083       .  S
C1297      C1298   1.405       .  A
C1298      C1844   1.397       .  A
C1298      H1304   1.085       .  S
C1305      C1306   1.403       .  A
C1305      C1310   1.402       .  A
C1306      C1307   1.391       .  A
C1306      H1315   1.083       .  S
C1307      C1308   1.398       .  A
C1307      H1316   1.084       .  S
C1308      C1309   1.416       .  A
C1309      C1310   1.403       .  A
C1310      H1317   1.085       .  S
C1311      C1312   1.397       .  A
C1312      C1313   1.407   1_455  A
C1312      H1319   1.083       .  S
C1313      C1314   1.401       .  A
C1314      H1320   1.085       .  S
C1321      C1322   1.409       .  A
C1321      C1326   1.406       .  A
C1322      C1323   1.397       .  A
C1322      H1331   1.083       .  S
C1323      C1324   1.399       .  A
C1323      H1332   1.084       .  S
C1324      C1882   1.408       .  A
C1324      C1325   1.416       .  A
C1325      C1327   1.400       .  A
C1325      C1326   1.409       .  A
C1326      H1333   1.085       .  S
C1327      C1880   1.397       .  A
C1327      H1334   1.084       .  S
C1328      C1879   1.397       .  A
C1328      C1329   1.409       .  A
C1328      H1335   1.083       .  S
C1329      C1330   1.404       .  A
C1330      C1876   1.408       .  A
C1330      H1336   1.084       .  S
C1337      C1338   1.404       .  A
C1337      C1342   1.408       .  A
C1338      C1339   1.401       .  A
C1338      H1347   1.083       .  S
C1339      C1340   1.406       .  A
C1339      H1348   1.084       .  S
C1340      C1341   1.411       .  A
C1341      C1342   1.400       .  A
C1342      H1349   1.085       .  S
C1343      C1344   1.397       .  A
C1343      H1350   1.084       .  S
C1344      C1345   1.403       .  A
C1344      H1351   1.083       .  S
C1345      C1346   1.410       .  A
C1346      H1352   1.085       .  S
C1353      C1354   1.404       .  A
C1353      C1358   1.406       .  A
C1354      C1355   1.394       .  A
C1354      H1363   1.084       .  S
C1355      C1356   1.400       .  A
C1355      H1364   1.084       .  S
C1356      C1362   1.403       .  A
C1356      C1357   1.416       .  A
C1357      C1359   1.406       .  A
C1357      C1358   1.412       .  A
C1358      H1365   1.084       .  S
C1359      C1360   1.403       .  A
C1359      H1366   1.083       .  S
C1360      C1361   1.403       .  A
C1360      H1367   1.083       .  S
C1361      C1362   1.401       .  A
C1362      H1368   1.085       .  S
C1369      C1370   1.403       .  A
C1369      C1374   1.409       .  A
C1370      C1371   1.404       .  A
C1370      H1379   1.083       .  S
C1371      C1372   1.407       .  A
C1371      H1380   1.084       .  S
C1372      C1378   1.407       .  A
C1372      C1373   1.411       .  A
C1373      C1375   1.404       .  A
C1373      C1374   1.402       .  A
C1374      H1381   1.085       .  S
C1375      C1376   1.399       .  A
C1375      H1382   1.084       .  S
C1376      C1377   1.404       .  A
C1376      H1383   1.083       .  S
C1377      C1378   1.411       .  A
C1378      H1384   1.084       .  S
C1385      C1386   1.403       .  A
C1385      C1390   1.410       .  A
C1386      C1387   1.390       .  A
C1386      H1395   1.084       .  S
C1387      C1388   1.398       .  A
C1387      H1396   1.084       .  S
C1388      C1394   1.397       .  A
C1388      C1389   1.414       .  A
C1389      C1391   1.409       .  A
C1389      C1390   1.414       .  A
C1390      H1397   1.084       .  S
C1391      C1392   1.408       .  A
C1391      H1398   1.083       .  S
C1392      C1393   1.404       .  A
C1392      H1399   1.083       .  S
C1393      C1394   1.401       .  A
C1394      H1400   1.085       .  S
C1401      C1402   1.406       .  A
C1401      C1406   1.402       .  A
C1402      C1955   1.393       .  A
C1402      H1411   1.083       .  S
C1403      C1954   1.393       .  A
C1403      C1404   1.399       .  A
C1403      H1412   1.084       .  S
C1404      C1410   1.399       .  A
C1404      C1405   1.415       .  A
C1405      C1407   1.400       .  A
C1405      C1958   1.399   1_545  A
C1406      C1957   1.399       .  A
C1406      H1413   1.084       .  S
C1407      C1408   1.393       .  A
C1407      H1414   1.084   1_545  S
C1408      C1409   1.404       .  A
C1408      H1415   1.083       .  S
C1409      C1410   1.400       .  A
C1410      H1416   1.085       .  S
C1417      C1418   1.403       .  A
C1417      C1422   1.407       .  A
C1418      C1419   1.397       .  A
C1418      H1427   1.083       .  S
C1419      C1420   1.403       .  A
C1419      H1428   1.084       .  S
C1420      C1426   1.399       .  A
C1420      C1421   1.412       .  A
C1421      C1423   1.404       .  A
C1421      C1422   1.399       .  A
C1422      H1429   1.085       .  S
C1423      C1424   1.397       .  A
C1423      H1430   1.084       .  S
C1424      C1425   1.403       .  A
C1424      H1431   1.083       .  S
C1425      C1426   1.407       .  A
C1426      H1432   1.085       .  S
C1433      C1434   1.403       .  A
C1433      C1438   1.411       .  A
C1434      C1435   1.397       .  A
C1434      H1443   1.083       .  S
C1435      C1436   1.403       .  A
C1435      H1444   1.084       .  S
C1436      C1442   1.400       .  A
C1436      C1437   1.412       .  A
C1437      C1439   1.407       .  A
C1437      C1438   1.406       .  A
C1438      H1445   1.084       .  S
C1439      C1440   1.403       .  A
C1439      H1446   1.084       .  S
C1440      C1441   1.402       .  A
C1440      H1447   1.083       .  S
C1441      C1442   1.407       .  A
C1442      H1448   1.085       .  S
C1449      C1450   1.409       .  A
C1449      C1454   1.405       .  A
C1450      C1451   1.401   1_545  A
C1450      H1459   1.083       .  S
C1451      C1452   1.402       .  A
C1451      H1460   1.084       .  S
C1452      C2010   1.412       .  A
C1452      C1453   1.415   1_565  A
C1453      C1455   1.399       .  A
C1453      C1454   1.406       .  A
C1454      H1461   1.084       .  S
C1455      C2008   1.395   1_545  A
C1455      H1462   1.084       .  S
C1456      C2007   1.395       .  A
C1456      C1457   1.408       .  A
C1456      H1463   1.083       .  S
C1457      C1458   1.408       .  A
C1458      C2004   1.412       .  A
C1458      H1464   1.084       .  S
C1465      C1466   1.404       .  A
C1465      C1470   1.409       .  A
C1466      C1467   1.400       .  A
C1466      H1475   1.083       .  S
C1467      C1468   1.404       .  A
C1467      H1476   1.083       .  S
C1468      C1474   1.404       .  A
C1468      C1469   1.412       .  A
C1469      C1471   1.404       .  A
C1469      C1470   1.402       .  A
C1470      H1477   1.084       .  S
C1471      C1472   1.398       .  A
C1471      H1478   1.083       .  S
C1472      C1473   1.403       .  A
C1472      H1479   1.083       .  S
C1473      C1474   1.408       .  A
C1474      H1480   1.084       .  S
C1481      C1482   1.403       .  A
C1481      C1486   1.407       .  A
C1482      C1483   1.390       .  A
C1482      H1491   1.084       .  S
C1483      C1484   1.398       .  A
C1483      H1492   1.084       .  S
C1484      C1490   1.397       .  A
C1484      C1485   1.415       .  A
C1485      C1487   1.408       .  A
C1485      C1486   1.411       .  A
C1486      H1493   1.084       .  S
C1487      C1488   1.405       .  A
C1487      H1494   1.083       .  S
C1488      C1489   1.403       .  A
C1488      H1495   1.083       .  S
C1489      C1490   1.400       .  A
C1490      H1496   1.085       .  S
C1497      C1498   1.402       .  A
C1497      C1502   1.411       .  A
C1498      C1499   1.399       .  A
C1498      H1507   1.083       .  S
C1499      C1500   1.404       .  A
C1499      H1508   1.084       .  S
C1500      C1506   1.402       .  A
C1500      C1501   1.411       .  A
C1501      C1503   1.408       .  A
C1501      C1502   1.408       .  A
C1502      H1509   1.084       .  S
C1503      C1504   1.405       .  A
C1503      H1510   1.084       .  S
C1504      C1505   1.403       .  A
C1504      H1511   1.083       .  S
C1505      C1506   1.409       .  A
C1506      H1512   1.085       .  S
C1513      C1514   1.404       .  A
C1513      C1518   1.411       .  A
C1514      C1515   1.404       .  A
C1514      H1523   1.083       .  S
C1515      C1516   1.407       .  A
C1515      H1524   1.083       .  S
C1516      C1522   1.410       .  A
C1516      C1517   1.412       .  A
C1517      C1519   1.405       .  A
C1517      C1518   1.407       .  A
C1518      H1525   1.084       .  S
C1519      C1520   1.401       .  A
C1519      H1526   1.084       .  S
C1520      C1521   1.404       .  A
C1520      H1527   1.083       .  S
C1521      C1522   1.411       .  A
C1522      H1528   1.084       .  S
C1529      C1530   1.405       .  A
C1529      C1534   1.409       .  A
C1530      C1531   1.391       .  A
C1530      H1539   1.084       .  S
C1531      C1532   1.398   1_556  A
C1531      H1540   1.084   1_556  S
C1532      C1538   1.400       .  A
C1532      C1533   1.415       .  A
C1533      C1535   1.408       .  A
C1533      C1534   1.414   1_554  A
C1534      H1541   1.084       .  S
C1535      C1536   1.407       .  A
C1535      H1542   1.083       .  S
C1536      C1537   1.404       .  A
C1536      H1543   1.083       .  S
C1537      C1538   1.401       .  A
C1538      H1544   1.085       .  S
C1545      C1546   1.407       .  A
C1545      C1550   1.404       .  A
C1546      H1555   1.083       .  S
C1547      C1548   1.400       .  A
C1547      H1556   1.084       .  S
C1548      C1554   1.404       .  A
C1548      C1549   1.415       .  A
C1549      C1551   1.400       .  A
C1550      H1557   1.084       .  S
C1551      C1552   1.395       .  A
C1551      H1558   1.084       .  S
C1552      C1553   1.407       .  A
C1552      H1559   1.083       .  S
C1553      C1554   1.403       .  A
C1554      H1560   1.084       .  S
C1561      C1562   1.403       .  A
C1561      C1566   1.407       .  A
C1562      C1563   1.395       .  A
C1562      H1571   1.083       .  S
C1563      C1564   1.402       .  A
C1563      H1572   1.083       .  S
C1564      C1570   1.397       .  A
C1564      C1565   1.412       .  A
C1565      C1567   1.404       .  A
C1565      C1566   1.400       .  A
C1566      H1573   1.084       .  S
C1567      C1568   1.398       .  A
C1567      H1574   1.083       .  S
C1568      C1569   1.403       .  A
C1568      H1575   1.083       .  S
C1569      C1570   1.406       .  A
C1570      H1576   1.084       .  S
C1577      C1578   1.402       .  A
C1577      C1582   1.408       .  A
C1578      C1579   1.403       .  A
C1578      H1587   1.083       .  S
C1579      C1580   1.408       .  A
C1579      H1588   1.083       .  S
C1580      C1586   1.404       .  A
C1580      C1581   1.411       .  A
C1581      C1583   1.405       .  A
C1581      C1582   1.399       .  A
C1582      H1589   1.085       .  S
C1583      C1584   1.398       .  A
C1583      H1590   1.083       .  S
C1584      C1585   1.401       .  A
C1584      H1591   1.083       .  S
C1585      C1586   1.411       .  A
C1586      H1592   1.084       .  S
C1593      C1594   1.403       .  A
C1593      C1598   1.409       .  A
C1594      C1595   1.401       .  A
C1594      H1603   1.083       .  S
C1595      C1596   1.406       .  A
C1595      H1604   1.084       .  S
C1596      C1602   1.403       .  A
C1596      C1597   1.412       .  A
C1597      C1599   1.405       .  A
C1597      C1598   1.401       .  A
C1598      H1605   1.084       .  S
C1599      C1600   1.399       .  A
C1599      H1606   1.084       .  S
C1600      C1601   1.401       .  A
C1600      H1607   1.083       .  S
C1601      C1602   1.408       .  A
C1602      H1608   1.085       .  S
C1609      C1610   1.404       .  A
C1609      C1614   1.403       .  A
C1610      C1611   1.396       .  A
C1610      H1619   1.083       .  S
C1611      H1620   1.084       .  S
C1612      C1618   1.401       .  A
C1612      C1613   1.414       .  A
C1613      C1615   1.400       .  A
C1614      H1621   1.085       .  S
C1615      C1616   1.394       .  A
C1615      H1622   1.084       .  S
C1616      C1617   1.405       .  A
C1616      H1623   1.083       .  S
C1617      C1618   1.405       .  A
C1618      H1624   1.085       .  S
C1625      C1626   1.406       .  A
C1625      C1630   1.409       .  A
C1626      C1627   1.397       .  A
C1626      H1635   1.083       .  S
C1627      C1628   1.402       .  A
C1627      H1636   1.084       .  S
C1628      C1634   1.404       .  A
C1628      C1629   1.413       .  A
C1629      C1631   1.403       .  A
C1629      C1630   1.406       .  A
C1630      H1637   1.084       .  S
C1631      C1632   1.399       .  A
C1631      H1638   1.084       .  S
C1632      C1633   1.405       .  A
C1632      H1639   1.083       .  S
C1633      C1634   1.407       .  A
C1634      H1640   1.084       .  S
C1641      C1642   1.403       .  A
C1641      C1646   1.412       .  A
C1642      C1643   1.387       .  A
C1642      H1651   1.084       .  S
C1643      C1644   1.396   1_554  A
C1643      H1652   1.084   1_554  S
C1644      C1650   1.391       .  A
C1644      C1645   1.413   1_556  A
C1645      C1647   1.411   1_554  A
C1645      C1646   1.412       .  A
C1646      H1653   1.084       .  S
C1647      C1648   1.409       .  A
C1647      H1654   1.083       .  S
C1648      C1649   1.404       .  A
C1648      H1655   1.083       .  S
C1649      C1650   1.400       .  A
C1650      H1656   1.086       .  S
O1657      V1665   1.904       .  S
O1657      C1667   1.266       .  A
O1658      V1665   1.899       .  S
O1658      C1668   1.264       .  A
O1659      V1665   1.887       .  S
O1659      C1669   1.261       .  A
O1660      V1665   1.885       .  S
O1660      C1670   1.263       .  A
O1661      V1666   1.913       .  S
O1661      C1670   1.266       .  A
O1662      V1666   1.914       .  S
O1662      C1669   1.268       .  A
O1663      V1666   1.890       .  S
O1663      C1668   1.263       .  A
O1664      V1666   1.897       .  S
O1664      C1667   1.264       .  A
V1665      V1666   2.086       .  T
C1667      C2185   1.480       .  S
C1668      C2161   1.470       .  S
C1669      C2153   1.473       .  S
C1670      C2193   1.475       .  S
O1671      V1679   1.906       .  S
O1671      C1681   1.267       .  A
O1672      V1679   1.902       .  S
O1672      C1682   1.266       .  A
O1673      V1679   1.883       .  S
O1673      C1683   1.259       .  A
O1674      V1679   1.876       .  S
O1674      C1684   1.261       .  A
O1675      V1680   1.920       .  S
O1675      C1684   1.267       .  A
O1676      V1680   1.917       .  S
O1676      C1683   1.270       .  A
O1677      V1680   1.887       .  S
O1677      C1682   1.262       .  A
O1678      V1680   1.890       .  S
O1678      C1681   1.262       .  A
V1679      V1680   2.087       .  T
C1681      C2097   1.479       .  S
C1682      C2113   1.472       .  S
C1683      C2137   1.475       .  S
C1684      C2201   1.473       .  S
O1685      V1693   1.902       .  S
O1685      C1695   1.266       .  A
O1686      V1693   1.891       .  S
O1686      C1696   1.263       .  A
O1687      V1693   1.901       .  S
O1687      C1697   1.264       .  A
O1688      V1693   1.895       .  S
O1688      C1698   1.264       .  A
O1689      V1694   1.913       .  S
O1689      C1698   1.266       .  A
O1690      V1694   1.915       .  S
O1690      C1697   1.269       .  A
O1691      V1694   1.897       .  S
O1691      C1696   1.265       .  A
O1692      V1694   1.899       .  S
O1692      C1695   1.264       .  A
V1693      V1694   2.087       .  T
C1695      C2177   1.482       .  S
C1696      C2169   1.473       .  S
C1697      C2073   1.485       .  S
C1698      C2089   1.475       .  S
O1699      V1707   1.909       .  S
O1699      C1709   1.268       .  A
O1700      V1707   1.909       .  S
O1700      C1710   1.267       .  A
O1701      V1707   1.880       .  S
O1701      C1711   1.259       .  A
O1702      V1707   1.880       .  S
O1702      C1712   1.261       .  A
O1703      V1708   1.926       .  S
O1703      C1712   1.270       .  A
O1704      V1708   1.927       .  S
O1704      C1711   1.272       .  A
O1705      V1708   1.879       .  S
O1705      C1710   1.260       .  A
O1706      V1708   1.886       .  S
O1706      C1709   1.261       .  A
V1707      V1708   2.085       .  T
C1709      C2105   1.476       .  S
C1710      C2121   1.471       .  S
C1711      C2057   1.481       .  S
C1712      C2081   1.478       .  S
O1713      V1721   1.911       .  S
O1713      C1723   1.268       .  A
O1714      V1721   1.910       .  S
O1714      C1724   1.268       .  A
O1715      V1721   1.876       .  S
O1715      C1725   1.258       .  A
O1716      V1721   1.876       .  S
O1716      C1726   1.259       .  A
O1717      V1722   1.921       .  S
O1717      C1726   1.268       .  A
O1718      V1722   1.924       .  S
O1718      C1725   1.270       .  A
O1719      V1722   1.891       .  S
O1719      C1724   1.262       .  A
O1720      V1722   1.898       .  S
O1720      C1723   1.264       .  A
V1721      V1722   2.087       .  T
C1723      C2001   1.487       .  S
C1724      C2025   1.477       .  S
C1725      C2129   1.475       .  S
C1726      C2033   1.470       .  S
O1727      V1735   1.906       .  S
O1727      C1737   1.267       .  A
O1728      V1735   1.898       .  S
O1728      C1738   1.265       .  A
O1729      V1735   1.890       .  S
O1729      C1739   1.261       .  A
O1730      V1735   1.888       .  S
O1730      C1740   1.262       .  A
O1731      V1736   1.912       .  S
O1731      C1740   1.265       .  A
O1732      V1736   1.912       .  S
O1732      C1739   1.269       .  A
O1733      V1736   1.885       .  S
O1733      C1738   1.261       .  A
O1734      V1736   1.884       .  S
O1734      C1737   1.261       .  A
V1735      V1736   2.088       .  T
C1737      C1969   1.473       .  S
C1738      C1961   1.464       .  S
C1739      C1985   1.479       .  S
C1740      C2041   1.470       .  S
O1741      V1749   1.919       .  S
O1741      C1751   1.269       .  A
O1742      V1749   1.914       .  S
O1742      C1752   1.269       .  A
O1743      V1749   1.893       .  S
O1743      C1753   1.261       .  A
O1744      V1749   1.887       .  S
O1744      C1754   1.262       .  A
O1745      V1750   1.918       .  S
O1745      C1754   1.267       .  A
O1746      V1750   1.916       .  S
O1746      C1753   1.270       .  A
O1747      V1750   1.887       .  S
O1747      C1752   1.262       .  A
O1748      V1750   1.891       .  S
O1748      C1751   1.263       .  A
V1749      V1750   2.084       .  T
C1751      C2009   1.485       .  S
C1752      C2017   1.481       .  S
C1753      C2049   1.481       .  S
C1754      C1937   1.476       .  S
O1755      V1763   1.907       .  S
O1755      C1765   1.267       .  A
O1756      V1763   1.900       .  S
O1756      C1766   1.266       .  A
O1757      V1763   1.883       .  S
O1757      C1767   1.260       .  A
O1758      V1763   1.880       .  S
O1758      C1768   1.260       .  A
O1759      V1764   1.923       .  S
O1759      C1768   1.269       .  A
O1760      V1764   1.923       .  S
O1760      C1767   1.271       .  A
O1761      V1764   1.884       .  S
O1761      C1766   1.260       .  A
O1762      V1764   1.883       .  S
O1762      C1765   1.261       .  A
V1763      V1764   2.087       .  T
C1765      C1977   1.473       .  S
C1766      C1953   1.470       .  S
C1767      C1921   1.481       .  S
C1768      C1945   1.476       .  S
O1769      V1777   1.918       .  S
O1769      C1779   1.270       .  A
O1770      V1777   1.918       .  S
O1770      C1780   1.269       .  A
O1771      V1777   1.890       .  S
O1771      C1781   1.261       .  A
O1772      V1777   1.885       .  S
O1772      C1782   1.260       .  A
O1773      V1778   1.923       .  S
O1773      C1782   1.269       .  A
O1774      V1778   1.926       .  S
O1774      C1781   1.272       .  A
O1775      V1778   1.881       .  S
O1775      C1780   1.260       .  A
O1776      V1778   1.888       .  S
O1776      C1779   1.261       .  A
V1777      V1778   2.085       .  T
C1779      C1881   1.483       .  S
C1780      C1889   1.480       .  S
C1781      C2065   1.487       .  S
C1782      C1905   1.474       .  S
O1783      V1791   1.903       .  S
O1783      C1793   1.265       .  A
O1784      V1791   1.895       .  S
O1784      C1794   1.264       .  A
O1785      V1791   1.894       .  S
O1785      C1795   1.262       .  A
O1786      V1791   1.894       .  S
O1786      C1796   1.263       .  A
O1787      V1792   1.912       .  S
O1787      C1796   1.266       .  A
O1788      V1792   1.914       .  S
O1788      C1795   1.269       .  A
O1789      V1792   1.883       .  S
O1789      C1794   1.261       .  A
O1790      V1792   1.881       .  S
O1790      C1793   1.260       .  A
V1791      V1792   2.088       .  T
C1793      C1857   1.464       .  S
C1794      C1849   1.466       .  S
C1795      C1929   1.483       .  S
C1796      C1913   1.471       .  S
O1797      V1805   1.916       .  S
O1797      C1807   1.269       .  A
O1798      V1805   1.911       .  S
O1798      C1808   1.268       .  A
O1799      V1805   1.882       .  S
O1799      C1809   1.260       .  A
O1800      V1805   1.881       .  S
O1800      C1810   1.261       .  A
O1801      V1806   1.918       .  S
O1801      C1810   1.268       .  A
O1802      V1806   1.919       .  S
O1802      C1809   1.270       .  A
O1803      V1806   1.887       .  S
O1803      C1808   1.261       .  A
O1804      V1806   1.891       .  S
O1804      C1807   1.263       .  A
V1805      V1806   2.086       .  T
C1807      C1873   1.486       .  S
C1808      C1897   1.477       .  S
C1809      C2145   1.479       .  S
C1810      C1825   1.477       .  S
O1811      V1819   1.897       .  S
O1811      C1821   1.266       .  A
O1812      V1819   1.896       .  S
O1812      C1822   1.263       .  A
O1813      V1819   1.884       .  S
O1813      C1823   1.261       .  A
O1814      V1819   1.883       .  S
O1814      C1824   1.261       .  A
O1815      V1820   1.917       .  S
O1815      C1824   1.267       .  A
O1816      V1820   1.917       .  S
O1816      C1823   1.268       .  A
O1817      V1820   1.882       .  S
O1817      C1822   1.262       .  A
O1818      V1820   1.888       .  S
O1818      C1821   1.261       .  A
V1819      V1820   2.088       .  T
C1821      C1865   1.472       .  S
C1822      C1841   1.464       .  S
C1823      C1993   1.476       .  S
C1824      C1833   1.473       .  S
C1825      C1826   1.405       .  A
C1825      C1830   1.409       .  A
C1826      C1827   1.390       .  A
C1826      H1835   1.084       .  S
C1827      C1828   1.397       .  A
C1827      H1836   1.084       .  S
C1828      C1834   1.396       .  A
C1828      C1829   1.414       .  A
C1829      C1831   1.408       .  A
C1829      C1830   1.411       .  A
C1830      H1837   1.084       .  S
C1831      C1832   1.406       .  A
C1831      H1838   1.083       .  S
C1832      C1833   1.403       .  A
C1832      H1839   1.083       .  S
C1833      C1834   1.402       .  A
C1834      H1840   1.085       .  S
C1841      C1842   1.403       .  A
C1841      C1846   1.402       .  A
C1842      C1843   1.396       .  A
C1842      H1851   1.083       .  S
C1843      C1844   1.403       .  A
C1843      H1852   1.084       .  S
C1844      C1845   1.413       .  A
C1845      C1847   1.400       .  A
C1845      C1846   1.393       .  A
C1846      H1853   1.085       .  S
C1847      H1854   1.084       .  S
C1848      C1849   1.403       .  A
C1848      H1855   1.083       .  S
C1849      C1850   1.405   1_565  A
C1850      H1856   1.085       .  S
C1857      C1858   1.403       .  A
C1857      C1862   1.402       .  A
C1858      C1859   1.391       .  A
C1858      H1867   1.083       .  S
C1859      C1860   1.398       .  A
C1859      H1868   1.084       .  S
C1860      C1861   1.416       .  A
C1861      C1862   1.403       .  A
C1862      H1869   1.085       .  S
C1863      C1864   1.397       .  A
C1864      C1865   1.407   1_455  A
C1864      H1871   1.083       .  S
C1865      C1866   1.401       .  A
C1866      H1872   1.085       .  S
C1873      C1874   1.409       .  A
C1873      C1878   1.406       .  A
C1874      C1875   1.397       .  A
C1874      H1883   1.083       .  S
C1875      C1876   1.399       .  A
C1875      H1884   1.084       .  S
C1876      C1877   1.416       .  A
C1877      C1879   1.400       .  A
C1877      C1878   1.409       .  A
C1878      H1885   1.085       .  S
C1879      H1886   1.084       .  S
C1880      C1881   1.409   1_545  A
C1880      H1887   1.083       .  S
C1881      C1882   1.404   1_565  A
C1882      H1888   1.084   1_545  S
C1889      C1890   1.404       .  A
C1889      C1894   1.408       .  A
C1890      C1891   1.401       .  A
C1890      H1899   1.083       .  S
C1891      C1892   1.406       .  A
C1891      H1900   1.084       .  S
C1892      C1893   1.411       .  A
C1893      C1894   1.400       .  A
C1894      H1901   1.085       .  S
C1895      C1896   1.397       .  A
C1895      H1902   1.084       .  S
C1896      C1897   1.403       .  A
C1896      H1903   1.083       .  S
C1897      C1898   1.410       .  A
C1898      H1904   1.085       .  S
C1905      C1906   1.404       .  A
C1905      C1910   1.407       .  A
C1906      C1907   1.394       .  A
C1906      H1915   1.084       .  S
C1907      C1908   1.400       .  A
C1907      H1916   1.084       .  S
C1908      C1914   1.403       .  A
C1908      C1909   1.416       .  A
C1909      C1911   1.406       .  A
C1909      C1910   1.412       .  A
C1910      H1917   1.084       .  S
C1911      C1912   1.403       .  A
C1911      H1918   1.083       .  S
C1912      C1913   1.403       .  A
C1912      H1919   1.083       .  S
C1913      C1914   1.401       .  A
C1914      H1920   1.085       .  S
C1921      C1922   1.403       .  A
C1921      C1926   1.409       .  A
C1922      C1923   1.404       .  A
C1922      H1931   1.083       .  S
C1923      C1924   1.407       .  A
C1923      H1932   1.084       .  S
C1924      C1930   1.407       .  A
C1924      C1925   1.411       .  A
C1925      C1927   1.404       .  A
C1925      C1926   1.403       .  A
C1926      H1933   1.085       .  S
C1927      C1928   1.399       .  A
C1927      H1934   1.084       .  S
C1928      C1929   1.404       .  A
C1928      H1935   1.083       .  S
C1929      C1930   1.411       .  A
C1930      H1936   1.084       .  S
C1937      C1938   1.403       .  A
C1937      C1942   1.410       .  A
C1938      C1939   1.390       .  A
C1938      H1947   1.084       .  S
C1939      C1940   1.398       .  A
C1939      H1948   1.084       .  S
C1940      C1946   1.397       .  A
C1940      C1941   1.414       .  A
C1941      C1943   1.409       .  A
C1941      C1942   1.414       .  A
C1942      H1949   1.084       .  S
C1943      C1944   1.408       .  A
C1943      H1950   1.083       .  S
C1944      C1945   1.404       .  A
C1944      H1951   1.083       .  S
C1945      C1946   1.401       .  A
C1946      H1952   1.085       .  S
C1953      C1954   1.406   1_565  A
C1953      C1958   1.402       .  A
C1954      H1963   1.083   1_545  S
C1955      C1956   1.399       .  A
C1955      H1964   1.084       .  S
C1956      C1962   1.399       .  A
C1956      C1957   1.415       .  A
C1957      C1959   1.400       .  A
C1958      H1965   1.084       .  S
C1959      C1960   1.393       .  A
C1959      H1966   1.084       .  S
C1960      C1961   1.404       .  A
C1960      H1967   1.083       .  S
C1961      C1962   1.400       .  A
C1962      H1968   1.085       .  S
C1969      C1970   1.403       .  A
C1969      C1974   1.407       .  A
C1970      C1971   1.397       .  A
C1970      H1979   1.083       .  S
C1971      C1972   1.403       .  A
C1971      H1980   1.084       .  S
C1972      C1978   1.399       .  A
C1972      C1973   1.412       .  A
C1973      C1975   1.404       .  A
C1973      C1974   1.399       .  A
C1974      H1981   1.085       .  S
C1975      C1976   1.397       .  A
C1975      H1982   1.084       .  S
C1976      C1977   1.403       .  A
C1976      H1983   1.083       .  S
C1977      C1978   1.407       .  A
C1978      H1984   1.085       .  S
C1985      C1986   1.403       .  A
C1985      C1990   1.411       .  A
C1986      C1987   1.397       .  A
C1986      H1995   1.083       .  S
C1987      C1988   1.403       .  A
C1987      H1996   1.084       .  S
C1988      C1994   1.400       .  A
C1988      C1989   1.412       .  A
C1989      C1991   1.407       .  A
C1989      C1990   1.406       .  A
C1990      H1997   1.084       .  S
C1991      C1992   1.403       .  A
C1991      H1998   1.084       .  S
C1992      C1993   1.402       .  A
C1992      H1999   1.083       .  S
C1993      C1994   1.407       .  A
C1994      H2000   1.085       .  S
C2001      C2002   1.409       .  A
C2001      C2006   1.405       .  A
C2002      C2003   1.401       .  A
C2002      H2011   1.083       .  S
C2003      C2004   1.402       .  A
C2003      H2012   1.084       .  S
C2004      C2005   1.415       .  A
C2005      C2007   1.399       .  A
C2005      C2006   1.406       .  A
C2006      H2013   1.084       .  S
C2007      H2014   1.084       .  S
C2008      C2009   1.408       .  A
C2008      H2015   1.083       .  S
C2009      C2010   1.408       .  A
C2010      H2016   1.084       .  S
C2017      C2018   1.404       .  A
C2017      C2022   1.409       .  A
C2018      C2019   1.400       .  A
C2018      H2027   1.083       .  S
C2019      C2020   1.404       .  A
C2019      H2028   1.083       .  S
C2020      C2026   1.404       .  A
C2020      C2021   1.412       .  A
C2021      C2023   1.404       .  A
C2021      C2022   1.402       .  A
C2022      H2029   1.084       .  S
C2023      C2024   1.398       .  A
C2023      H2030   1.083       .  S
C2024      C2025   1.403       .  A
C2024      H2031   1.083       .  S
C2025      C2026   1.408       .  A
C2026      H2032   1.084       .  S
C2033      C2034   1.403       .  A
C2033      C2038   1.407       .  A
C2034      C2035   1.390       .  A
C2034      H2043   1.084       .  S
C2035      C2036   1.398       .  A
C2035      H2044   1.084       .  S
C2036      C2042   1.397       .  A
C2036      C2037   1.415       .  A
C2037      C2039   1.408       .  A
C2037      C2038   1.411       .  A
C2038      H2045   1.084       .  S
C2039      C2040   1.405       .  A
C2039      H2046   1.083       .  S
C2040      C2041   1.403       .  A
C2040      H2047   1.083       .  S
C2041      C2042   1.400       .  A
C2042      H2048   1.085       .  S
C2049      C2050   1.402       .  A
C2049      C2054   1.412       .  A
C2050      C2051   1.399       .  A
C2050      H2059   1.083       .  S
C2051      C2052   1.404       .  A
C2051      H2060   1.084       .  S
C2052      C2058   1.402       .  A
C2052      C2053   1.411       .  A
C2053      C2055   1.408       .  A
C2053      C2054   1.408       .  A
C2054      H2061   1.084       .  S
C2055      C2056   1.404       .  A
C2055      H2062   1.084       .  S
C2056      C2057   1.403       .  A
C2056      H2063   1.083       .  S
C2057      C2058   1.409       .  A
C2058      H2064   1.085       .  S
C2065      C2066   1.404       .  A
C2065      C2070   1.411       .  A
C2066      C2067   1.404       .  A
C2066      H2075   1.083       .  S
C2067      C2068   1.407       .  A
C2067      H2076   1.083       .  S
C2068      C2074   1.410       .  A
C2068      C2069   1.412       .  A
C2069      C2071   1.405       .  A
C2069      C2070   1.407       .  A
C2070      H2077   1.084       .  S
C2071      C2072   1.401       .  A
C2071      H2078   1.084       .  S
C2072      C2073   1.404       .  A
C2072      H2079   1.083       .  S
C2073      C2074   1.411       .  A
C2074      H2080   1.084       .  S
C2081      C2082   1.405       .  A
C2081      C2086   1.409       .  A
C2082      C2083   1.391       .  A
C2082      H2091   1.084       .  S
C2083      C2084   1.398   1_556  A
C2083      H2092   1.084   1_556  S
C2084      C2090   1.400       .  A
C2084      C2085   1.415       .  A
C2085      C2087   1.408       .  A
C2085      C2086   1.414   1_554  A
C2086      H2093   1.084       .  S
C2087      C2088   1.407       .  A
C2087      H2094   1.083       .  S
C2088      C2089   1.404       .  A
C2088      H2095   1.083       .  S
C2089      C2090   1.401       .  A
C2090      H2096   1.085       .  S
C2097      C2098   1.407       .  A
C2097      C2102   1.404       .  A
C2098      H2107   1.083       .  S
C2099      C2100   1.400       .  A
C2099      H2108   1.084       .  S
C2100      C2106   1.404       .  A
C2100      C2101   1.415       .  A
C2101      C2103   1.400       .  A
C2102      H2109   1.084       .  S
C2103      C2104   1.395       .  A
C2103      H2110   1.084       .  S
C2104      C2105   1.407       .  A
C2104      H2111   1.083       .  S
C2105      C2106   1.403       .  A
C2106      H2112   1.084       .  S
C2113      C2114   1.403       .  A
C2113      C2118   1.407       .  A
C2114      C2115   1.395       .  A
C2114      H2123   1.083       .  S
C2115      C2116   1.402       .  A
C2115      H2124   1.083       .  S
C2116      C2122   1.397       .  A
C2116      C2117   1.412       .  A
C2117      C2119   1.404       .  A
C2117      C2118   1.400       .  A
C2118      H2125   1.084       .  S
C2119      C2120   1.398       .  A
C2119      H2126   1.083       .  S
C2120      C2121   1.403       .  A
C2120      H2127   1.083       .  S
C2121      C2122   1.406       .  A
C2122      H2128   1.084       .  S
C2129      C2130   1.402       .  A
C2129      C2134   1.408       .  A
C2130      C2131   1.403       .  A
C2130      H2139   1.083       .  S
C2131      C2132   1.408       .  A
C2131      H2140   1.083       .  S
C2132      C2138   1.404       .  A
C2132      C2133   1.411       .  A
C2133      C2135   1.405       .  A
C2133      C2134   1.399       .  A
C2134      H2141   1.085       .  S
C2135      C2136   1.398       .  A
C2135      H2142   1.083       .  S
C2136      C2137   1.401       .  A
C2136      H2143   1.083       .  S
C2137      C2138   1.411       .  A
C2138      H2144   1.084       .  S
C2145      C2146   1.403       .  A
C2145      C2150   1.409       .  A
C2146      C2147   1.401       .  A
C2146      H2155   1.083       .  S
C2147      C2148   1.406       .  A
C2147      H2156   1.084       .  S
C2148      C2154   1.403       .  A
C2148      C2149   1.412       .  A
C2149      C2151   1.405       .  A
C2149      C2150   1.401       .  A
C2150      H2157   1.084       .  S
C2151      C2152   1.399       .  A
C2151      H2158   1.084       .  S
C2152      C2153   1.401       .  A
C2152      H2159   1.083       .  S
C2153      C2154   1.408       .  A
C2154      H2160   1.085       .  S
C2161      C2162   1.404       .  A
C2161      C2166   1.403       .  A
C2162      C2163   1.396       .  A
C2162      H2171   1.083       .  S
C2163      H2172   1.084       .  S
C2164      C2170   1.401       .  A
C2164      C2165   1.414       .  A
C2165      C2167   1.400       .  A
C2166      H2173   1.085       .  S
C2167      C2168   1.394       .  A
C2167      H2174   1.084       .  S
C2168      C2169   1.405       .  A
C2168      H2175   1.083       .  S
C2169      C2170   1.405       .  A
C2170      H2176   1.085       .  S
C2177      C2178   1.406       .  A
C2177      C2182   1.409       .  A
C2178      C2179   1.397       .  A
C2178      H2187   1.083       .  S
C2179      C2180   1.402       .  A
C2179      H2188   1.084       .  S
C2180      C2186   1.404       .  A
C2180      C2181   1.413       .  A
C2181      C2183   1.403       .  A
C2181      C2182   1.406       .  A
C2182      H2189   1.084       .  S
C2183      C2184   1.399       .  A
C2183      H2190   1.084       .  S
C2184      C2185   1.405       .  A
C2184      H2191   1.083       .  S
C2185      C2186   1.407       .  A
C2186      H2192   1.084       .  S
C2193      C2194   1.403       .  A
C2193      C2198   1.412       .  A
C2194      C2195   1.387       .  A
C2194      H2203   1.084       .  S
C2195      C2196   1.396   1_554  A
C2195      H2204   1.084   1_554  S
C2196      C2202   1.391       .  A
C2196      C2197   1.413   1_556  A
C2197      C2199   1.411   1_554  A
C2197      C2198   1.413       .  A
C2198      H2205   1.084       .  S
C2199      C2200   1.409       .  A
C2199      H2206   1.083       .  S
C2200      C2201   1.404       .  A
C2200      H2207   1.083       .  S
C2201      C2202   1.400       .  A
C2202      H2208   1.086       .  S
