geometry optimzed in LAMMPS
_audit_creation_date              2020-12-01 
_audit_creation_method            'lammps2cif' 
_symmetry_space_group_name_H-M    'P1' 
_symmetry_Int_Tables_number       1 
_symmetry_cell_setting            triclinic 
loop_ 
_symmetry_equiv_pos_as_xyz 
  x,y,z 
_cell_length_a                    50.91527484 
_cell_length_b                    50.89081145625659 
_cell_length_c                    50.90181768034555 
_cell_angle_alpha                 90.04442593616274 
_cell_angle_beta                  90.08568739164907 
_cell_angle_gamma                 90.04402945941953 
loop_ 
_atom_site_label 
_atom_site_type_symbol 
_atom_site_fract_x 
_atom_site_fract_y 
_atom_site_fract_z 
_atom_site_charge 
O1          O  0.04204331  0.46862983  0.89551842    -0.74800
O2          O  0.02591156  0.50826231  0.83318756    -0.74800
O3          O  0.99851454  0.49202292  0.87627432    -0.74900
O4          O  0.06936940  0.48568814  0.85336525    -0.74900
O5          O  0.05890459  0.44932187  0.83137303    -0.74800
O6          O  0.98834830  0.45367822  0.85753667    -0.74800
O7          O  0.01403510  0.47103076  0.81354080    -0.74800
O8          O  0.03340810  0.43141432  0.87404373    -0.74900
Ni9        Ni  0.03422727  0.49004043  0.86530173     1.25400
Ni10       Ni  0.02320599  0.45012636  0.84327833     1.25400
C11         C  0.04067001  0.44341392  0.89485052     0.87400
C12         C  0.01803419  0.49585349  0.81266941     0.87300
C13         C  0.98215731  0.47345998  0.87187203     0.87400
C14         C  0.07597905  0.46638907  0.83875931     0.87500
O15         O  0.05971477  0.40333449  0.05197723    -0.74800
O16         O  0.01937065  0.34254877  0.03251272    -0.74800
O17         O  0.04274558  0.35983285  0.07679977    -0.74900
O18         O  0.03541459  0.38707385  0.00798923    -0.74900
O19         O  0.07246465  0.36783806  0.99510130    -0.74800
O20         O  0.07943076  0.33924998  0.06506373    -0.74800
O21         O  0.05617120  0.32266831  0.01992309    -0.74800
O22         O  0.09642633  0.38286946  0.04011737    -0.74900
Ni23       Ni  0.03800045  0.37382538  0.04264921     1.25400
Ni24       Ni  0.07738656  0.35227583  0.02952109     1.25400
C25         C  0.08477052  0.40318358  0.04919382     0.87400
C26         C  0.03128446  0.32223828  0.02352906     0.87300
C27         C  0.06246630  0.34554393  0.08266865     0.87400
C28         C  0.05315350  0.38350064  0.99066930     0.87500
O29         O  0.89258037  0.48000557  0.96192424    -0.74800
O30         O  0.83287255  0.49618046  0.00613590    -0.74800
O31         O  0.84989538  0.45392399  0.97895429    -0.74900
O32         O  0.87708320  0.52217101  0.99024635    -0.74900
O33         O  0.85519063  0.53732967  0.95550895    -0.74800
O34         O  0.82791686  0.46765318  0.94365603    -0.74800
O35         O  0.81142620  0.51043097  0.97083790    -0.74800
O36         O  0.87024609  0.49524144  0.92741831    -0.74900
Ni37       Ni  0.86382085  0.48764586  0.98563795     1.25400
Ni38       Ni  0.84031177  0.50323230  0.94819406     1.25400
C39         C  0.89100782  0.48518312  0.93724090     0.87400
C40         C  0.81188147  0.50537612  0.99543118     0.87300
C41         C  0.83519406  0.44915510  0.95922318     0.87400
C42         C  0.87159570  0.54081389  0.97440386     0.87500
O43         O  0.12580642  0.55722797  0.06951441    -0.74800
O44         O  0.18678749  0.53986969  0.02832870    -0.74800
O45         O  0.14291209  0.51369001  0.04498435    -0.74900
O46         O  0.16822272  0.58333931  0.05223097    -0.74900
O47         O  0.18937508  0.57224162  0.08884473    -0.74800
O48         O  0.16433165  0.50113093  0.08113266    -0.74800
O49         O  0.20787892  0.52837347  0.06483405    -0.74800
O50         O  0.14732988  0.54490688  0.10567699    -0.74900
Ni51       Ni  0.15528369  0.54878722  0.04738847     1.25400
Ni52       Ni  0.17812133  0.53613967  0.08634179     1.25400
C53         C  0.12684764  0.55420834  0.09453124     0.87400
C54         C  0.20781944  0.53215484  0.03997568     0.87300
C55         C  0.14810997  0.49638518  0.06238571     0.87400
C56         C  0.18214206  0.58970697  0.07210868     0.87500
O57         O  0.97293230  0.58386620  0.13166527    -0.74800
O58         O  0.98886466  0.53762226  0.18951194    -0.74800
O59         O  0.94622439  0.56409779  0.17254274    -0.74900
O60         O  0.01571887  0.55649416  0.14758057    -0.74900
O61         O  0.02877431  0.59115117  0.17112710    -0.74800
O62         O  0.95793738  0.59885453  0.19650170    -0.74800
O63         O  0.00110996  0.57237943  0.21304484    -0.74800
O64         O  0.98575315  0.61815958  0.15576327    -0.74900
Ni65       Ni  0.98058272  0.55927558  0.15950146     1.25400
Ni66       Ni  0.99391736  0.59631447  0.18505675     1.25400
C67         C  0.97663204  0.60870881  0.13436238     0.87400
C68         C  0.99720823  0.54760617  0.21117061     0.87300
C69         C  0.94029140  0.58292281  0.18798361     0.87400
C70         C  0.03357925  0.57255247  0.15478113     0.87500
O71         O  0.95604693  0.63746585  0.98416644    -0.74800
O72         O  0.99182332  0.70345941  0.99388886    -0.74800
O73         O  0.97731405  0.66291121  0.02541979    -0.74900
O74         O  0.97154751  0.67715322  0.95234551    -0.74900
O75         O  0.93386193  0.69822869  0.95916780    -0.74800
O76         O  0.93794954  0.68077036  0.03265500    -0.74800
O77         O  0.95334892  0.72246316  0.00228220    -0.74800
O78         O  0.91772692  0.65798149  0.98953274    -0.74900
Ni79       Ni  0.97560036  0.66960766  0.98874394     1.25400
Ni80       Ni  0.93440932  0.69068425  0.99621534     1.25400
C81         C  0.93084255  0.63704772  0.98526479     0.87400
C82         C  0.97822009  0.72402497  0.99925764     0.87300
C83         C  0.95820610  0.66813454  0.04077234     0.87400
C84         C  0.95180031  0.68982835  0.94353659     0.87500
O85         O  0.89102126  0.55575182  0.56609865    -0.74800
O86         O  0.82937934  0.54030708  0.52455865    -0.74800
O87         O  0.84885314  0.58296961  0.54906967    -0.74900
O88         O  0.87277812  0.51325677  0.54076958    -0.74900
O89         O  0.85178777  0.50058437  0.57701957    -0.74800
O90         O  0.82759799  0.57162127  0.58550137    -0.74800
O91         O  0.80859680  0.52843578  0.56103454    -0.74800
O92         O  0.86931901  0.54336713  0.60205476    -0.74900
Ni93       Ni  0.86117580  0.54839933  0.54375516     1.25400
Ni94       Ni  0.83840986  0.53552960  0.58260226     1.25400
C95         C  0.89025775  0.55151280  0.59097051     0.87400
C96         C  0.80838586  0.53264937  0.53625941     0.87300
C97         C  0.83476779  0.58912898  0.56882301     0.87400
C98         C  0.86786064  0.49592289  0.55820643     0.87500
O99         O  0.95600787  0.40330318  0.55051235    -0.74800
O100        O  0.99638590  0.34197006  0.53362252    -0.74800
O101        O  0.98086710  0.38609214  0.50744044    -0.74900
O102        O  0.97203080  0.36031196  0.57678422    -0.74900
O103        O  0.93548470  0.33950202  0.56493154    -0.74800
O104        O  0.94404676  0.36612501  0.49458470    -0.74800
O105        O  0.95953002  0.32199170  0.52096693    -0.74800
O106        O  0.91935514  0.38245392  0.53849812    -0.74900
Ni107      Ni  0.97767369  0.37357322  0.54243980     1.25400
Ni108      Ni  0.93836002  0.35167310  0.52920387     1.25400
C109        C  0.93104007  0.40295129  0.54707142     0.87400
C110        C  0.98422164  0.32141517  0.52551380     0.87300
C111        C  0.96347322  0.38153706  0.48988490     0.87400
C112        C  0.95224909  0.34612119  0.58265298     0.87500
O113        O  0.97432315  0.46469042  0.39221199    -0.74800
O114        O  0.98962298  0.50041567  0.32761269    -0.74800
O115        O  0.94616720  0.47963679  0.34998770    -0.74900
O116        O  0.01763885  0.48599013  0.37080043    -0.74900
O117        O  0.02673831  0.44709842  0.35266523    -0.74800
O118        O  0.95482448  0.44165478  0.32984088    -0.74800
O119        O  0.99901607  0.46204225  0.30867704    -0.74800
O120        O  0.98223324  0.42629285  0.37262977    -0.74900
Ni121      Ni  0.98167521  0.48408623  0.36072033     1.25400
Ni122      Ni  0.99112341  0.44293619  0.34016392     1.25400
C123        C  0.97587110  0.43954327  0.39302415     0.87400
C124        C  0.99621514  0.48700623  0.30730047     0.87300
C125        C  0.93858005  0.45951494  0.33702155     0.87400
C126        C  0.03359357  0.46714523  0.36640868     0.87500
O127        O  0.12841500  0.48180554  0.44949309    -0.74800
O128        O  0.18813346  0.50229887  0.49142083    -0.74800
O129        O  0.14300011  0.52585149  0.47462469    -0.74900
O130        O  0.17250952  0.45807477  0.46700978    -0.74900
O131        O  0.19336751  0.47048567  0.43067640    -0.74800
O132        O  0.16377843  0.53976599  0.43866377    -0.74800
O133        O  0.20863882  0.51519365  0.45509528    -0.74800
O134        O  0.14940769  0.49542066  0.41360420    -0.74900
Ni135      Ni  0.15735742  0.49162524  0.47196575     1.25400
Ni136      Ni  0.17963581  0.50575008  0.43326607     1.25400
C137        C  0.12899530  0.48576198  0.42457398     0.87400
C138        C  0.20871311  0.51127418  0.47989998     0.87300
C139        C  0.14733153  0.54352104  0.45738503     0.87400
C140        C  0.18751413  0.45277301  0.44768373     0.87500
O141        O  0.04500013  0.56825372  0.62556762    -0.74800
O142        O  0.02966946  0.53208326  0.68999860    -0.74800
O143        O  0.00181704  0.54589231  0.64651270    -0.74900
O144        O  0.07294311  0.55356698  0.66810338    -0.74900
O145        O  0.06306426  0.59102992  0.68850828    -0.74800
O146        O  0.99193550  0.58489992  0.66394124    -0.74800
O147        O  0.01852375  0.57013178  0.70834808    -0.74800
O148        O  0.03647998  0.60634884  0.64549127    -0.74900
Ni149      Ni  0.03763890  0.54852356  0.65693398     1.25400
Ni150      Ni  0.02705489  0.58939702  0.67735546     1.25400
C151        C  0.04341837  0.59342770  0.62513809     0.87400
C152        C  0.02198617  0.54529191  0.71004452     0.87300
C153        C  0.98554831  0.56458604  0.65040898     0.87400
C154        C  0.07985923  0.57356791  0.68162538     0.87500
O155        O  0.06076494  0.63670142  0.47055227    -0.74800
O156        O  0.02079308  0.69737276  0.49144559    -0.74800
O157        O  0.04298821  0.68045922  0.44667362    -0.74900
O158        O  0.03768833  0.65235533  0.51514887    -0.74900
O159        O  0.07496490  0.67200995  0.52710741    -0.74800
O160        O  0.07980219  0.70139658  0.45757227    -0.74800
O161        O  0.05785113  0.71715554  0.50330420    -0.74800
O162        O  0.09760891  0.65762819  0.48159733    -0.74900
Ni163      Ni  0.03919258  0.66608291  0.48066521     1.25400
Ni164      Ni  0.07881221  0.68789882  0.49290886     1.25400
C165        C  0.08591724  0.63729369  0.47262743     0.87400
C166        C  0.03299276  0.71780463  0.49996175     0.87300
C167        C  0.06236463  0.69500935  0.44042433     0.87400
C168        C  0.05597957  0.65611139  0.53190958     0.87500
O169        O  0.54828442  0.57220352  0.89343096    -0.74800
O170        O  0.52747286  0.53634965  0.83034353    -0.74800
O171        O  0.57237133  0.55770330  0.84873729    -0.74900
O172        O  0.50367519  0.55008634  0.87620756    -0.74900
O173        O  0.49163702  0.58829529  0.85860568    -0.74800
O174        O  0.56161472  0.59597746  0.83059930    -0.74800
O175        O  0.51613756  0.57460261  0.81259235    -0.74800
O176        O  0.53695393  0.61034895  0.87518524    -0.74900
Ni177      Ni  0.53826810  0.55269258  0.86268807     1.25400
Ni178      Ni  0.52607350  0.59361962  0.84346602     1.25400
C179        C  0.54575991  0.59725929  0.89472347     0.87400
C180        C  0.51904503  0.54971958  0.81066564     0.87300
C181        C  0.57878590  0.57825124  0.83592514     0.87400
C182        C  0.48669631  0.56829504  0.87319218     0.87500
O183        O  0.39269490  0.55612106  0.96043783    -0.74800
O184        O  0.32885238  0.54214673  0.99861037    -0.74800
O185        O  0.37090061  0.51341427  0.98283381    -0.74900
O186        O  0.35168948  0.58522580  0.97715641    -0.74900
O187        O  0.32976102  0.57676135  0.94014862    -0.74800
O188        O  0.35203553  0.50461753  0.94418136    -0.74800
O189        O  0.30899511  0.53234483  0.96085378    -0.74800
O190        O  0.37139335  0.54902306  0.92278603    -0.74900
Ni191      Ni  0.36168761  0.54949589  0.98114190     1.25400
Ni192      Ni  0.33969056  0.54030950  0.94069886     1.25400
C193        C  0.39241887  0.55490161  0.93521649     0.87400
C194        C  0.30821830  0.53509161  0.98584690     0.87300
C195        C  0.36580826  0.49754228  0.96409630     0.87400
C196        C  0.33796722  0.59300141  0.95766318     0.87500
O197        O  0.45048927  0.40411349  0.97974490    -0.74800
O198        O  0.48980324  0.34105968  0.99457399    -0.74800
O199        O  0.46766073  0.36282272  0.95176228    -0.74900
O200        O  0.47374595  0.38339696  0.02295348    -0.74900
O201        O  0.43624735  0.36306389  0.03298115    -0.74800
O202        O  0.43041863  0.34164319  0.96061976    -0.74800
O203        O  0.45248460  0.32046683  0.00416281    -0.74800
O204        O  0.41349637  0.38275614  0.98940527    -0.74900
Ni205      Ni  0.47177515  0.37356183  0.98706741     1.25400
Ni206      Ni  0.43188437  0.35113721  0.99722118     1.25400
C207        C  0.42533470  0.40352791  0.98175383     0.87400
C208        C  0.47742236  0.32001026  0.00099704     0.87300
C209        C  0.44796867  0.34928497  0.94419633     0.87400
C210        C  0.45589060  0.37750441  0.03952196     0.87500
O211        O  0.46836433  0.46054782  0.13360910    -0.74800
O212        O  0.48568535  0.50324489  0.19383342    -0.74800
O213        O  0.51135230  0.48689573  0.14949315    -0.74900
O214        O  0.44282505  0.47761863  0.17659608    -0.74900
O215        O  0.45534062  0.44169123  0.19814608    -0.74800
O216        O  0.52550924  0.45134746  0.17075680    -0.74800
O217        O  0.49890531  0.46741308  0.21493907    -0.74800
O218        O  0.48223679  0.42507294  0.15529515    -0.74900
Ni219      Ni  0.47670747  0.48338974  0.16270781     1.25400
Ni220      Ni  0.49106727  0.44516134  0.18566839     1.25400
C221        C  0.47277358  0.43574097  0.13464488     0.87400
C222        C  0.49407751  0.49206355  0.21487795     0.87300
C223        C  0.52932496  0.47007609  0.15425565     0.87400
C224        C  0.43743231  0.45821026  0.19145934     0.87500
O225        O  0.56720907  0.63702861  0.05276889    -0.74800
O226        O  0.52416721  0.69561949  0.03090005    -0.74800
O227        O  0.54296977  0.65093091  0.00768206    -0.74900
O228        O  0.54764266  0.68050374  0.07578907    -0.74900
O229        O  0.58380187  0.70228687  0.06447205    -0.74800
O230        O  0.57872394  0.67280846  0.99503056    -0.74800
O231        O  0.56039217  0.71706774  0.01916127    -0.74800
O232        O  0.60278794  0.65921219  0.04031764    -0.74900
Ni233      Ni  0.54415343  0.66527782  0.04207934     1.25400
Ni234      Ni  0.58262996  0.68868423  0.02921544     1.25400
C235        C  0.59226607  0.63860805  0.05004309     0.87400
C236        C  0.53549517  0.71655540  0.02245020     0.87300
C237        C  0.56036126  0.65615088  0.99039054     0.87400
C238        C  0.56668555  0.69570768  0.08175735     0.87500
O239        O  0.62605410  0.48615286  0.07124204    -0.74800
O240        O  0.69046491  0.50306413  0.03505711    -0.74800
O241        O  0.66784428  0.45880182  0.05381115    -0.74900
O242        O  0.64742182  0.53050946  0.05161931    -0.74900
O243        O  0.66632681  0.53787862  0.09053797    -0.74800
O244        O  0.68805948  0.46550045  0.09209296    -0.74800
O245        O  0.70972176  0.51030584  0.07373669    -0.74800
O246        O  0.64630752  0.49261882  0.10953565    -0.74900
Ni247      Ni  0.65731859  0.49450859  0.05150300     1.25400
Ni248      Ni  0.67841455  0.50196532  0.09276921     1.25400
C249        C  0.62581350  0.48620908  0.09650633     0.87400
C250        C  0.71103546  0.50853756  0.04869138     0.87300
C251        C  0.68077736  0.45009841  0.07346760     0.87400
C252        C  0.65227505  0.54561639  0.07106460     0.87500
O253        O  0.44883961  0.64197262  0.54885574    -0.74800
O254        O  0.48762138  0.70474404  0.53245533    -0.74800
O255        O  0.46462331  0.68466856  0.57565001    -0.74900
O256        O  0.47254349  0.66076962  0.50578606    -0.74900
O257        O  0.43579140  0.68146801  0.49370805    -0.74800
O258        O  0.42689871  0.70423609  0.56529202    -0.74800
O259        O  0.45011694  0.72478197  0.52211319    -0.74800
O260        O  0.41196238  0.66223475  0.53651646    -0.74900
Ni261      Ni  0.46981238  0.67243968  0.54099663     1.25400
Ni262      Ni  0.42992275  0.69403828  0.52894480     1.25400
C263        C  0.42392449  0.64191067  0.54504560     0.87400
C264        C  0.47501018  0.72540804  0.52533678     0.87300
C265        C  0.44423780  0.69757309  0.58238907     0.87400
C266        C  0.45497398  0.66593484  0.48866600     0.87500
O267        O  0.46736716  0.58239493  0.39350045    -0.74800
O268        O  0.48454920  0.54198377  0.33204848    -0.74800
O269        O  0.51041106  0.55694437  0.37680607    -0.74900
O270        O  0.44145621  0.56684293  0.35011517    -0.74900
O271        O  0.45384389  0.60347416  0.32980306    -0.74800
O272        O  0.52425523  0.59332740  0.35684501    -0.74800
O273        O  0.49755173  0.57853388  0.31201599    -0.74800
O274        O  0.48065947  0.61869163  0.37310897    -0.74900
Ni275      Ni  0.47561210  0.56070059  0.36372393     1.25400
Ni276      Ni  0.48966416  0.59973706  0.34209492     1.25400
C277        C  0.47102758  0.60736370  0.39331521     0.87400
C278        C  0.49293449  0.55382885  0.31140873     0.87300
C279        C  0.52834417  0.57401652  0.37261895     0.87400
C280        C  0.43583421  0.58695330  0.33620451     0.87500
O281        O  0.62356789  0.56142928  0.45978632    -0.74800
O282        O  0.68652764  0.54225317  0.49718688    -0.74800
O283        O  0.66755358  0.58646376  0.47558342    -0.74900
O284        O  0.64147157  0.51736587  0.48234969    -0.74900
O285        O  0.65958578  0.50591853  0.44419534    -0.74800
O286        O  0.68725044  0.57595290  0.43793335    -0.74800
O287        O  0.70508633  0.53075881  0.45933927    -0.74800
O288        O  0.64307375  0.55115810  0.42199607    -0.74900
Ni289      Ni  0.65420950  0.55217559  0.48010755     1.25400
Ni290      Ni  0.67455152  0.54043967  0.43956463     1.25400
C291        C  0.62295425  0.55927747  0.43463954     0.87400
C292        C  0.70656485  0.53408576  0.48423689     0.87300
C293        C  0.68117658  0.59289052  0.45559934     0.87400
C294        C  0.64478554  0.50069827  0.46391523     0.87500
O295        O  0.55811567  0.40574432  0.47299000    -0.74800
O296        O  0.52175962  0.34168915  0.49026436    -0.74800
O297        O  0.53488282  0.38672078  0.51609840    -0.74900
O298        O  0.54413845  0.36182418  0.44656006    -0.74900
O299        O  0.58174996  0.34267229  0.45792576    -0.74800
O300        O  0.57327666  0.36949704  0.52822680    -0.74800
O301        O  0.55991432  0.32411049  0.50261036    -0.74800
O302        O  0.59603929  0.38660622  0.48378108    -0.74900
Ni303      Ni  0.53830313  0.37453264  0.48111562     1.25400
Ni304      Ni  0.57902534  0.35493708  0.49364225     1.25400
C305        C  0.58318132  0.40657337  0.47578028     0.87400
C306        C  0.53522133  0.32206843  0.49865304     0.87300
C307        C  0.55309270  0.38382345  0.53311939     0.87400
C308        C  0.56448153  0.34854929  0.44044032     0.87500
O309        O  0.54567319  0.47272276  0.62657495    -0.74800
O310        O  0.52879796  0.51018319  0.69029684    -0.74800
O311        O  0.57195179  0.48679648  0.67058481    -0.74900
O312        O  0.50299275  0.49721524  0.64528633    -0.74900
O313        O  0.49008444  0.45898275  0.66211535    -0.74800
O314        O  0.55965704  0.44973114  0.69025772    -0.74800
O315        O  0.51503460  0.47253937  0.70777423    -0.74800
O316        O  0.53442595  0.43516935  0.64617456    -0.74900
Ni317      Ni  0.53774272  0.49312844  0.65759945     1.25400
Ni318      Ni  0.52425665  0.45284283  0.67737268     1.25400
C319        C  0.54272598  0.44763061  0.62610467     0.87400
C320        C  0.51975809  0.49710285  0.70989845     0.87300
C321        C  0.57748388  0.46656026  0.68428131     0.87400
C322        C  0.48566904  0.47930335  0.64780377     0.87500
O323        O  0.39006783  0.48790934  0.56299262    -0.74800
O324        O  0.32632468  0.50296807  0.52573964    -0.74800
O325        O  0.36936394  0.53072095  0.54023478    -0.74900
O326        O  0.34783338  0.45970191  0.54794056    -0.74900
O327        O  0.32713093  0.46976304  0.58517309    -0.74800
O328        O  0.35103179  0.54098166  0.57872124    -0.74800
O329        O  0.30719201  0.51403282  0.56346978    -0.74800
O330        O  0.36974027  0.49668175  0.60084916    -0.74900
Ni331      Ni  0.35901857  0.49498834  0.54283088     1.25400
Ni332      Ni  0.33797364  0.50579886  0.58335592     1.25400
C333        C  0.39018581  0.48974634  0.58811792     0.87400
C334        C  0.30607237  0.51072866  0.53857661     0.87300
C335        C  0.36457215  0.54729292  0.55845285     0.87400
C336        C  0.33431840  0.45284819  0.56793230     0.87500
O337        O  0.56272902  0.90558831  0.55112423    -0.74800
O338        O  0.51913311  0.84605991  0.53391020    -0.74800
O339        O  0.54492507  0.86301525  0.57683033    -0.74900
O340        O  0.53596581  0.88991604  0.50819882    -0.74900
O341        O  0.57088312  0.86767107  0.49393656    -0.74800
O342        O  0.58065066  0.84118042  0.56423587    -0.74800
O343        O  0.55471754  0.82434027  0.52092798    -0.74800
O344        O  0.59766600  0.88336262  0.53692190    -0.74900
Ni345      Ni  0.53937210  0.87686416  0.54287875     1.25400
Ni346      Ni  0.57718816  0.85326110  0.52846651     1.25400
C347        C  0.58752357  0.90411736  0.54672288     0.87400
C348        C  0.53001792  0.82496351  0.52533599     0.87300
C349        C  0.56444835  0.84829093  0.58222543     0.87400
C350        C  0.55220012  0.88415701  0.48999987     0.87500
O351        O  0.53971980  0.96744783  0.39296577    -0.74800
O352        O  0.52552127  0.00460782  0.32862035    -0.74800
O353        O  0.49687084  0.98883748  0.37117906    -0.74900
O354        O  0.56852652  0.98365879  0.35174938    -0.74900
O355        O  0.56059438  0.94576096  0.33126848    -0.74800
O356        O  0.48828719  0.95018509  0.35218012    -0.74800
O357        O  0.51674384  0.96637488  0.30919933    -0.74800
O358        O  0.53205736  0.92937410  0.37272307    -0.74900
Ni359      Ni  0.53286939  0.98756110  0.36170732     1.25400
Ni360      Ni  0.52402976  0.94665754  0.34043921     1.25400
C361        C  0.53800509  0.94227242  0.39346614     0.87400
C362        C  0.51962137  0.99135305  0.30794647     0.87300
C363        C  0.48135333  0.96968927  0.36652667     0.87400
C364        C  0.57663777  0.96362527  0.33901719     0.87500
O365        O  0.45559361  0.13940552  0.47750879    -0.74800
O366        O  0.49429672  0.20142956  0.49564758    -0.74800
O367        O  0.47686588  0.15846011  0.52196943    -0.74900
O368        O  0.47368532  0.18123750  0.45109172    -0.74900
O369        O  0.43666942  0.20320343  0.45930616    -0.74800
O370        O  0.43850263  0.17782381  0.53056742    -0.74800
O371        O  0.45677088  0.22172069  0.50502876    -0.74800
O372        O  0.41808271  0.16070745  0.48484619    -0.74900
Ni373      Ni  0.47649207  0.16949567  0.48634972     1.25400
Ni374      Ni  0.43622326  0.19175849  0.49535471     1.25400
C375        C  0.43039345  0.13993252  0.47800872     0.87400
C376        C  0.48179408  0.22213821  0.50274693     0.87300
C377        C  0.45776115  0.16309934  0.53749734     0.87400
C378        C  0.45438561  0.19519000  0.44327824     0.87500
O379        O  0.39253067  0.98254343  0.45670700    -0.74800
O380        O  0.33294537  0.00192077  0.49912330    -0.74800
O381        O  0.34964506  0.95771704  0.47508108    -0.74900
O382        O  0.37713182  0.02651971  0.48161713    -0.74900
O383        O  0.35592539  0.03933921  0.44546560    -0.74800
O384        O  0.32733548  0.96949076  0.43925099    -0.74800
O385        O  0.31186025  0.01442423  0.46296656    -0.74800
O386        O  0.37024715  0.99459798  0.42104780    -0.74900
Ni387      Ni  0.36375998  0.99185553  0.47949395     1.25400
Ni388      Ni  0.34048804  0.00498400  0.44096697     1.25400
C389        C  0.39099566  0.98526426  0.43165686     0.87400
C390        C  0.31216157  0.01066410  0.48779085     0.87300
C391        C  0.33449487  0.95196699  0.45593621     0.87400
C392        C  0.37230520  0.04382117  0.46413379     0.87500
O393        O  0.46669497  0.07367138  0.62717551    -0.74800
O394        O  0.48259847  0.02928750  0.68688026    -0.74800
O395        O  0.44029750  0.05636800  0.66953321    -0.74900
O396        O  0.50874552  0.04571870  0.64298882    -0.74900
O397        O  0.52331543  0.08080164  0.66480076    -0.74800
O398        O  0.45360770  0.09153256  0.69213967    -0.74800
O399        O  0.49667536  0.06463487  0.70843228    -0.74800
O400        O  0.48089341  0.10830554  0.64999359    -0.74900
Ni401      Ni  0.47415829  0.04991346  0.65596304     1.25400
Ni402      Ni  0.48919231  0.08744988  0.67977450     1.25400
C403        C  0.47153572  0.09842769  0.62890575     0.87400
C404        C  0.49178670  0.03999433  0.70788541     0.87300
C405        C  0.43529527  0.07613459  0.68407853     0.87400
C406        C  0.52699641  0.06211777  0.64822371     0.87500
O407        O  0.62264943  0.05417938  0.56214444    -0.74800
O408        O  0.68852031  0.04138614  0.52744655    -0.74800
O409        O  0.64625284  0.01185092  0.54124016    -0.74900
O410        O  0.66399220  0.08401130  0.54738212    -0.74900
O411        O  0.68414492  0.07647693  0.58541500    -0.74800
O412        O  0.66348608  0.00391014  0.58081636    -0.74800
O413        O  0.70667259  0.03229861  0.56619465    -0.74800
O414        O  0.64249488  0.04785955  0.60073117    -0.74900
Ni415      Ni  0.65476966  0.04810989  0.54310520     1.25400
Ni416      Ni  0.67500636  0.03979007  0.58459902     1.25400
C417        C  0.62193999  0.05302951  0.58734153     0.87400
C418        C  0.70865249  0.03511407  0.54134237     0.87300
C419        C  0.65061785  0.99637337  0.56046483     0.87400
C420        C  0.67658483  0.09243578  0.56737783     0.87500
O421        O  0.45092405  0.89897356  0.04738615    -0.74800
O422        O  0.49111997  0.83671995  0.03202270    -0.74800
O423        O  0.47608835  0.88051840  0.00507301    -0.74900
O424        O  0.46667366  0.85645408  0.07475331    -0.74900
O425        O  0.43006742  0.83554544  0.06317656    -0.74800
O426        O  0.43960250  0.86008747  0.99210066    -0.74800
O427        O  0.45455798  0.81617550  0.01983083    -0.74800
O428        O  0.41463187  0.87785928  0.03480161    -0.74900
Ni429      Ni  0.47256209  0.86874380  0.04018123     1.25400
Ni430      Ni  0.43348264  0.84649893  0.02700375     1.25400
C431        C  0.42609347  0.89869398  0.04292096     0.87400
C432        C  0.47938200  0.81591273  0.02383962     0.87300
C433        C  0.45868958  0.87596047  0.98755680     0.87400
C434        C  0.44667834  0.84268419  0.08087063     0.87500
O435        O  0.38978066  0.05456227  0.05986884    -0.74800
O436        O  0.32704296  0.03828424  0.02084624    -0.74800
O437        O  0.34712631  0.08161184  0.04407530    -0.74900
O438        O  0.37094134  0.01107187  0.03629320    -0.74900
O439        O  0.35179132  0.00011032  0.07414987    -0.74800
O440        O  0.32633835  0.07079449  0.08096551    -0.74800
O441        O  0.30744406  0.02665510  0.05809828    -0.74800
O442        O  0.36923620  0.04445733  0.09714985    -0.74900
Ni443      Ni  0.35934502  0.04665569  0.03886546     1.25400
Ni444      Ni  0.33785417  0.03498136  0.07881099     1.25400
C445        C  0.38978158  0.05222919  0.08498506     0.87400
C446        C  0.30645445  0.03068894  0.03325683     0.87300
C447        C  0.33338898  0.08806454  0.06406747     0.87400
C448        C  0.36671651  0.99448499  0.05466182     0.87500
O449        O  0.47033245  0.96293398  0.89272157    -0.74800
O450        O  0.48684606  0.99902137  0.82839087    -0.74800
O451        O  0.44293976  0.97882364  0.85012422    -0.74900
O452        O  0.51412828  0.98396961  0.87187965    -0.74900
O453        O  0.52304347  0.94515600  0.85345094    -0.74800
O454        O  0.45132497  0.94077417  0.83019825    -0.74800
O455        O  0.49595720  0.96065106  0.80942104    -0.74800
O456        O  0.47825612  0.92471697  0.87280768    -0.74900
Ni457      Ni  0.47831986  0.98259798  0.86139569     1.25400
Ni458      Ni  0.48754737  0.94151293  0.84068952     1.25400
C459        C  0.47162704  0.93773403  0.89322628     0.87400
C460        C  0.49354822  0.98564917  0.80806028     0.87300
C461        C  0.43518647  0.95893149  0.83689102     0.87400
C462        C  0.52996571  0.96510405  0.86724817     0.87500
O463        O  0.54434019  0.07165256  0.12395887    -0.74800
O464        O  0.52690966  0.03362551  0.18699066    -0.74800
O465        O  0.50076492  0.04877832  0.14268220    -0.74900
O466        O  0.57071486  0.05559431  0.16700771    -0.74900
O467        O  0.56048153  0.09301778  0.18731390    -0.74800
O468        O  0.48942191  0.08659128  0.16166028    -0.74800
O469        O  0.51586775  0.07118891  0.20633277    -0.74800
O470        O  0.53417086  0.10918525  0.14406369    -0.74900
Ni471      Ni  0.53594879  0.05104535  0.15457474     1.25400
Ni472      Ni  0.52449938  0.09129424  0.17566984     1.25400
C473        C  0.54204185  0.09679013  0.12366661     0.87400
C474        C  0.51927611  0.04629378  0.20746967     0.87300
C475        C  0.48401461  0.06699500  0.14666090     0.87400
C476        C  0.57741650  0.07555185  0.18060214     0.87500
O477        O  0.55684211  0.13673444  0.96788913    -0.74800
O478        O  0.51780774  0.19845449  0.98816414    -0.74800
O479        O  0.53865962  0.17959781  0.94302403    -0.74900
O480        O  0.53516961  0.15395911  0.01274317    -0.74900
O481        O  0.57287349  0.17378515  0.02309915    -0.74800
O482        O  0.57593153  0.20078820  0.95227041    -0.74800
O483        O  0.55543656  0.21834756  0.99823814    -0.74800
O484        O  0.59413885  0.15772967  0.97715334    -0.74900
Ni485      Ni  0.53571704  0.16659342  0.97773163     1.25400
Ni486      Ni  0.57585861  0.18853691  0.98813855     1.25400
C487        C  0.58206572  0.13722905  0.96906988     0.87400
C488        C  0.53040985  0.21894101  0.99596581     0.87300
C489        C  0.55824805  0.19341404  0.93580052     0.87400
C490        C  0.55388795  0.15818625  0.02892138     0.87500
O491        O  0.62371778  0.98093236  0.95148811    -0.74800
O492        O  0.68416487  0.00192392  0.99210338    -0.74800
O493        O  0.63911315  0.02582600  0.97470291    -0.74900
O494        O  0.66733812  0.95706284  0.96933709    -0.74900
O495        O  0.68804652  0.96799125  0.93247814    -0.74800
O496        O  0.65959773  0.03800470  0.93797896    -0.74800
O497        O  0.70445093  0.01338111  0.95517834    -0.74800
O498        O  0.64456563  0.99274652  0.91491126    -0.74900
Ni499      Ni  0.65295688  0.99118110  0.97328836     1.25400
Ni500      Ni  0.67502963  0.00355598  0.93390937     1.25400
C501        C  0.62431114  0.98332184  0.92638310     0.87400
C502        C  0.70483130  0.01001483  0.98008696     0.87300
C503        C  0.64324915  0.04268502  0.95658474     0.87400
C504        C  0.68158152  0.95073441  0.94970345     0.87500
O505        O  0.94408494  0.14288016  0.04903917    -0.74800
O506        O  0.98622751  0.20247784  0.02865803    -0.74800
O507        O  0.96320120  0.18588026  0.07320854    -0.74900
O508        O  0.96792163  0.15803590  0.00439864    -0.74900
O509        O  0.93193998  0.17977649  0.99211438    -0.74800
O510        O  0.92679907  0.20757961  0.06272163    -0.74800
O511        O  0.94980883  0.22394192  0.01757502    -0.74800
O512        O  0.90825803  0.16494879  0.03710334    -0.74900
Ni513      Ni  0.96670979  0.17164933  0.03909242     1.25400
Ni514      Ni  0.92798197  0.19495438  0.02686418     1.25400
C515        C  0.91904359  0.14420779  0.04616897     0.87400
C516        C  0.97472510  0.22351440  0.02074687     0.87300
C517        C  0.94395451  0.20047331  0.07985589     0.87400
C518        C  0.95021508  0.16302122  0.98733643     0.87500
O519        O  0.88593411  0.98971066  0.06624992    -0.74800
O520        O  0.82347656  0.00705367  0.02739539    -0.74800
O521        O  0.86616005  0.03402719  0.04525517    -0.74900
O522        O  0.84434266  0.96284455  0.04772116    -0.74900
O523        O  0.82266028  0.97036565  0.08500205    -0.74800
O524        O  0.84595711  0.04223643  0.08328266    -0.74800
O525        O  0.80275420  0.01536620  0.06489730    -0.74800
O526        O  0.86463895  0.99699016  0.10373434    -0.74900
Ni527      Ni  0.85563764  0.99823116  0.04529183     1.25400
Ni528      Ni  0.83313773  0.00663159  0.08552448     1.25400
C529        C  0.88558290  0.99048537  0.09146509     0.87400
C530        C  0.80242452  0.01327842  0.03981575     0.87300
C531        C  0.86075082  0.04949532  0.06423244     0.87400
C532        C  0.83045039  0.95467568  0.06689694     0.87500
O533        O  0.04036631  0.97069226  0.13059051    -0.74800
O534        O  0.02292620  0.00883293  0.19385423    -0.74800
O535        O  0.06660986  0.98690778  0.17365583    -0.74900
O536        O  0.99660059  0.99352275  0.14931117    -0.74900
O537        O  0.98499760  0.95622307  0.16911463    -0.74800
O538        O  0.05678564  0.94892147  0.19280699    -0.74800
O539        O  0.01294795  0.97082826  0.21317664    -0.74800
O540        O  0.02871034  0.93343854  0.15052401    -0.74900
Ni541      Ni  0.03184888  0.99141029  0.16125599     1.25400
Ni542      Ni  0.02037352  0.95110052  0.18225853     1.25400
C543        C  0.03717177  0.94564939  0.13035376     0.87400
C544        C  0.01650626  0.99565177  0.21440418     0.87300
C545        C  0.07371723  0.96655639  0.18634168     0.87400
C546        C  0.97971413  0.97546804  0.15364564     0.87500
O547        O  0.05924628  0.90743267  0.97540734    -0.74800
O548        O  0.01954803  0.84534121  0.99304478    -0.74800
O549        O  0.03469784  0.88961339  0.01923913    -0.74900
O550        O  0.04302140  0.86433534  0.94979039    -0.74900
O551        O  0.08001442  0.84393568  0.96127145    -0.74800
O552        O  0.07193942  0.87003253  0.03158691    -0.74800
O553        O  0.05663921  0.82570582  0.00508374    -0.74800
O554        O  0.09586441  0.88672746  0.98773637    -0.74900
Ni555      Ni  0.03773638  0.87739160  0.98409419     1.25400
Ni556      Ni  0.07734287  0.85579878  0.99696254     1.25400
C557        C  0.08430613  0.90690655  0.97838780     0.87400
C558        C  0.03190282  0.82477060  0.00093666     0.87300
C559        C  0.05218465  0.88482745  0.03659287     0.87400
C560        C  0.06301889  0.85049409  0.94383769     0.87500
O561        O  0.12063601  0.06040872  0.95810448    -0.74800
O562        O  0.18415998  0.04242756  0.99474728    -0.74800
O563        O  0.16368950  0.08664243  0.97413464    -0.74900
O564        O  0.14021602  0.01619537  0.97923049    -0.74900
O565        O  0.15827568  0.00651773  0.94048010    -0.74800
O566        O  0.18362992  0.07728551  0.93630166    -0.74800
O567        O  0.20289197  0.03223292  0.95662327    -0.74800
O568        O  0.14023141  0.05189607  0.91988871    -0.74900
Ni569      Ni  0.15154028  0.05167370  0.97793892     1.25400
Ni570      Ni  0.17203536  0.04156201  0.93699479     1.25400
C571        C  0.12002419  0.05907144  0.93294214     0.87400
C572        C  0.20432969  0.03491824  0.98163683     0.87300
C573        C  0.17730591  0.09369457  0.95432302     0.87400
C574        C  0.14456095  0.00002962  0.96054910     0.87500
O575        O  0.96334209  0.07799629  0.89213016    -0.74800
O576        O  0.98417625  0.03843636  0.83105310    -0.74800
O577        O  0.00791745  0.05470424  0.87611164    -0.74900
O578        O  0.93929345  0.06108026  0.84803284    -0.74900
O579        O  0.95054740  0.09812755  0.82789885    -0.74800
O580        O  0.02032858  0.09195609  0.85679252    -0.74800
O581        O  0.99606578  0.07567610  0.81149237    -0.74800
O582        O  0.97491762  0.11502917  0.87194908    -0.74900
Ni583      Ni  0.97335897  0.05670152  0.86243419     1.25400
Ni584      Ni  0.98597172  0.09646184  0.84119793     1.25400
C585        C  0.96561595  0.10315224  0.89203089     0.87400
C586        C  0.99312423  0.05068860  0.81091122     0.87300
C587        C  0.02507494  0.07261804  0.87229057     0.87400
C588        C  0.93311519  0.08096649  0.83405412     0.87500
O589        O  0.04829744  0.07912746  0.39582293    -0.74800
O590        O  0.02853949  0.03787915  0.33515367    -0.74800
O591        O  0.07244026  0.06210363  0.35220869    -0.74900
O592        O  0.00447602  0.05358863  0.38028591    -0.74900
O593        O  0.99035967  0.08973305  0.36004223    -0.74800
O594        O  0.06032018  0.09881215  0.33184682    -0.74800
O595        O  0.01574465  0.07447916  0.31503344    -0.74800
O596        O  0.03439332  0.11505996  0.37498878    -0.74900
Ni597      Ni  0.03876746  0.05682273  0.36649981     1.25400
Ni598      Ni  0.02463417  0.09574270  0.34460175     1.25400
C599        C  0.04459483  0.10411052  0.39510866     0.87400
C600        C  0.01955146  0.04967563  0.31467207     0.87300
C601        C  0.07816728  0.08213615  0.33836154     0.87400
C602        C  0.98663084  0.07066253  0.37619236     0.87500
O603        O  0.89182646  0.05912801  0.46167501    -0.74800
O604        O  0.82927090  0.04228983  0.50059545    -0.74800
O605        O  0.87376324  0.01619568  0.48644840    -0.74900
O606        O  0.84832077  0.08557324  0.47657304    -0.74900
O607        O  0.82796100  0.07323825  0.43991390    -0.74800
O608        O  0.85509788  0.00321937  0.44903841    -0.74800
O609        O  0.81039902  0.02907295  0.46346952    -0.74800
O610        O  0.87156605  0.04730874  0.42464233    -0.74900
Ni611      Ni  0.86142381  0.05116830  0.48269821     1.25400
Ni612      Ni  0.84047236  0.03767677  0.44301427     1.25400
C613        C  0.89180761  0.05610264  0.43661466     0.87400
C614        C  0.80912981  0.03347321  0.48814185     0.87300
C615        C  0.86989246  0.99859163  0.46894747     0.87400
C616        C  0.83420358  0.09115883  0.45660751     0.87500
O617        O  0.95416225  0.90199029  0.48179666    -0.74800
O618        O  0.98994820  0.83696160  0.49539691    -0.74800
O619        O  0.96855835  0.86015308  0.45293141    -0.74900
O620        O  0.97658512  0.87969237  0.52416913    -0.74900
O621        O  0.93753551  0.86235035  0.53397199    -0.74800
O622        O  0.93068254  0.84014525  0.46186767    -0.74800
O623        O  0.95168500  0.81856454  0.50580509    -0.74800
O624        O  0.91584033  0.88243569  0.49001041    -0.74900
Ni625      Ni  0.97368837  0.87030060  0.48830603     1.25400
Ni626      Ni  0.93260274  0.85005628  0.49835917     1.25400
C627        C  0.92902925  0.90278975  0.48356866     0.87400
C628        C  0.97647897  0.81676631  0.50225077     0.87300
C629        C  0.94831900  0.84741508  0.44537424     0.87400
C630        C  0.95816534  0.87534542  0.54055016     0.87500
O631        O  0.06541263  0.13865147  0.54674241    -0.74800
O632        O  0.02829940  0.20239792  0.53193945    -0.74800
O633        O  0.04380451  0.16029216  0.50351968    -0.74900
O634        O  0.04910370  0.17987371  0.57526728    -0.74900
O635        O  0.08645321  0.20138894  0.56718478    -0.74800
O636        O  0.08252877  0.17901124  0.49496522    -0.74800
O637        O  0.06607927  0.22222858  0.52257221    -0.74800
O638        O  0.10327101  0.15946492  0.53959349    -0.74900
Ni639      Ni  0.04526495  0.16967556  0.53958563     1.25400
Ni640      Ni  0.08590144  0.19136830  0.53068608     1.25400
C641        C  0.09059515  0.13870578  0.54585487     0.87400
C642        C  0.04110883  0.22304090  0.52516265     0.87300
C643        C  0.06257873  0.16536463  0.48773011     0.87400
C644        C  0.06880786  0.19321329  0.58319485     0.87500
O645        O  0.12998650  0.98476167  0.56820490    -0.74800
O646        O  0.19222662  0.00269686  0.52963320    -0.74800
O647        O  0.17297036  0.95877852  0.55202392    -0.74900
O648        O  0.14798680  0.02817418  0.54481459    -0.74900
O649        O  0.16725130  0.04017841  0.58232212    -0.74800
O650        O  0.19292547  0.96904158  0.58955386    -0.74800
O651        O  0.21177098  0.01389651  0.56714827    -0.74800
O652        O  0.15009848  0.99577924  0.60553015    -0.74900
Ni653      Ni  0.16023287  0.99329146  0.54731800     1.25400
Ni654      Ni  0.18141988  0.00521570  0.58742116     1.25400
C655        C  0.12977242  0.98754675  0.59328060     0.87400
C656        C  0.21253546  0.01084451  0.54220738     0.87300
C657        C  0.18610325  0.95191244  0.57222657     0.87400
C658        C  0.15197715  0.04514942  0.56281604     0.87500
O659        O  0.97377731  0.96284728  0.63083255    -0.74800
O660        O  0.99092198  0.00550037  0.69101856    -0.74800
O661        O  0.01710861  0.98858562  0.64760885    -0.74900
O662        O  0.94784899  0.98068007  0.67313582    -0.74900
O663        O  0.95951260  0.94480059  0.69508525    -0.74800
O664        O  0.03015155  0.95272159  0.66909338    -0.74800
O665        O  0.00328542  0.96954515  0.71254413    -0.74800
O666        O  0.98657922  0.92724871  0.65292665    -0.74900
Ni667      Ni  0.98212034  0.98571165  0.65991566     1.25400
Ni668      Ni  0.99541183  0.94734738  0.68328391     1.25400
C669        C  0.97715352  0.93788916  0.63223664     0.87400
C670        C  0.99906711  0.99433045  0.71213184     0.87300
C671        C  0.03484274  0.97177152  0.65324543     0.87400
C672        C  0.94186371  0.96132949  0.68787614     0.87500
O673        O  0.72804083  0.65035912  0.81691455    -0.74800
O674        O  0.73975620  0.58560526  0.77963121    -0.74800
O675        O  0.69761995  0.61021603  0.80064457    -0.74900
O676        O  0.76996574  0.62690740  0.79516696    -0.74900
O677        O  0.77811693  0.60728043  0.83351811    -0.74800
O678        O  0.70500527  0.58889849  0.83820060    -0.74800
O679        O  0.74807838  0.56545017  0.81752794    -0.74800
O680        O  0.73497860  0.62948933  0.85476703    -0.74900
Ni681      Ni  0.73363014  0.61888115  0.79669380     1.25400
Ni682      Ni  0.74189140  0.59692935  0.83731447     1.25400
C683        C  0.72959505  0.65051877  0.84209728     0.87400
C684        C  0.74552536  0.56467190  0.79250602     0.87300
C685        C  0.68923346  0.59739945  0.82044691     0.87400
C686        C  0.78560434  0.62128145  0.81394769     0.87500
O687        O  0.87631311  0.70661346  0.79981039    -0.74800
O688        O  0.93535968  0.75114123  0.78370070    -0.74800
O689        O  0.89233010  0.73302400  0.75700636    -0.74900
O690        O  0.91773838  0.72581512  0.82637056    -0.74900
O691        O  0.94079406  0.69047023  0.81518756    -0.74800
O692        O  0.91525756  0.69806300  0.74387731    -0.74800
O693        O  0.95780472  0.71565296  0.77163653    -0.74800
O694        O  0.89964496  0.67180843  0.78707304    -0.74900
Ni695      Ni  0.90467878  0.73046050  0.79200951     1.25400
Ni696      Ni  0.92929615  0.69280588  0.77891336     1.25400
C697        C  0.87847374  0.68175117  0.79597161     0.87400
C698        C  0.95684549  0.74033286  0.77607392     0.87300
C699        C  0.89840615  0.71631288  0.73934405     0.87400
C700        C  0.93293763  0.70698425  0.83267401     0.87500
O701        O  0.64431772  0.82270652  0.72096032    -0.74800
O702        O  0.58198009  0.78531123  0.74208202    -0.74800
O703        O  0.59947409  0.80762317  0.69742133    -0.74900
O704        O  0.62807497  0.79968188  0.76573341    -0.74900
O705        O  0.60993098  0.83738464  0.77858031    -0.74800
O706        O  0.58082340  0.84536544  0.70919055    -0.74800
O707        O  0.56369377  0.82300442  0.75432437    -0.74800
O708        O  0.62551787  0.86025968  0.73317552    -0.74900
Ni709      Ni  0.61402755  0.80244133  0.73127610     1.25400
Ni710      Ni  0.59423589  0.84278572  0.74441353     1.25400
C711        C  0.64497954  0.84783080  0.72326645     0.87400
C712        C  0.56204616  0.79813627  0.75067152     0.87300
C713        C  0.58613104  0.82804151  0.69164057     0.87400
C714        C  0.62507074  0.81768230  0.78293056     0.87500
O715        O  0.70951388  0.80688481  0.87893865    -0.74800
O716        O  0.74824874  0.79096714  0.94210298    -0.74800
O717        O  0.73397564  0.76402889  0.89771844    -0.74900
O718        O  0.72454132  0.83391049  0.92193185    -0.74900
O719        O  0.68731402  0.82247413  0.94172837    -0.74800
O720        O  0.69663584  0.75149909  0.91674958    -0.74800
O721        O  0.71082507  0.77878151  0.96108992    -0.74800
O722        O  0.67240214  0.79517327  0.89891979    -0.74900
Ni723      Ni  0.73046021  0.79924916  0.90957375     1.25400
Ni724      Ni  0.69056178  0.78643522  0.93045470     1.25400
C725        C  0.68444294  0.80388742  0.87872810     0.87400
C726        C  0.73551344  0.78323407  0.96246735     0.87300
C727        C  0.71638998  0.74659978  0.90185712     0.87400
C728        C  0.70413356  0.84009607  0.93509946     0.87500
O729        O  0.81304068  0.73138066  0.64422513    -0.74800
O730        O  0.77536751  0.75020663  0.58156293    -0.74800
O731        O  0.79710238  0.70608339  0.60071780    -0.74900
O732        O  0.79062013  0.77558280  0.62621258    -0.74900
O733        O  0.82834788  0.78684683  0.60703296    -0.74800
O734        O  0.83490415  0.71623514  0.58117574    -0.74800
O735        O  0.81309598  0.76081648  0.56235866    -0.74800
O736        O  0.85062244  0.74210550  0.62465648    -0.74900
Ni737      Ni  0.79263623  0.74055700  0.61376758     1.25400
Ni738      Ni  0.83302904  0.75201480  0.59299741     1.25400
C739        C  0.83816081  0.73354224  0.64472001     0.87400
C740        C  0.78819165  0.75767735  0.56117076     0.87300
C741        C  0.81725075  0.69937614  0.58744372     0.87400
C742        C  0.80898167  0.79216059  0.62221762     0.87500
O743        O  0.79844669  0.88842631  0.70498491    -0.74800
O744        O  0.77792137  0.95008014  0.74323517    -0.74800
O745        O  0.75328004  0.90591870  0.72535371    -0.74900
O746        O  0.82321755  0.93119919  0.72365249    -0.74900
O747        O  0.81506664  0.95230064  0.68615926    -0.74800
O748        O  0.74421268  0.92550676  0.68721012    -0.74800
O749        O  0.76875319  0.96995618  0.70541472    -0.74800
O750        O  0.79032319  0.90928630  0.66739692    -0.74900
Ni751      Ni  0.78840965  0.91829306  0.72570290     1.25400
Ni752      Ni  0.77919753  0.94014675  0.68526083     1.25400
C753        C  0.79764195  0.88873292  0.67976662     0.87400
C754        C  0.77078805  0.97061983  0.73043753     0.87300
C755        C  0.73771013  0.91015838  0.70613834     0.87400
C756        C  0.83100022  0.94525176  0.70444023     0.87500
O757        O  0.19717194  0.80420263  0.64502885    -0.74800
O758        O  0.23554071  0.78842838  0.58192404    -0.74800
O759        O  0.21483956  0.83191783  0.60373287    -0.74900
O760        O  0.21912217  0.76064107  0.62453276    -0.74900
O761        O  0.18077108  0.75171674  0.60518248    -0.74800
O762        O  0.17752847  0.82405912  0.58219459    -0.74800
O763        O  0.19776134  0.77922033  0.56185544    -0.74800
O764        O  0.15968916  0.79646264  0.62384834    -0.74900
Ni765      Ni  0.21802023  0.79648891  0.61448176     1.25400
Ni766      Ni  0.17763140  0.78746038  0.59241148     1.25400
C767        C  0.17194374  0.80314573  0.64469254     0.87400
C768        C  0.22273464  0.78196509  0.56113212     0.87300
C769        C  0.19558391  0.84001069  0.58989730     0.87400
C770        C  0.20043068  0.74474285  0.61942201     0.87500
O771        O  0.21852045  0.65312576  0.70439017    -0.74800
O772        O  0.23686731  0.59364676  0.74759442    -0.74800
O773        O  0.26165928  0.63873298  0.73202508    -0.74900
O774        O  0.19410016  0.60929279  0.72091080    -0.74900
O775        O  0.20838284  0.58811971  0.68551329    -0.74800
O776        O  0.27730535  0.61788016  0.69690266    -0.74800
O777        O  0.25181063  0.57299970  0.71212364    -0.74800
O778        O  0.23387564  0.63177138  0.66947955    -0.74900
Ni779      Ni  0.22741948  0.62440971  0.72754684     1.25400
Ni780      Ni  0.24349731  0.60188966  0.68981690     1.25400
C781        C  0.22296402  0.65198684  0.67956378     0.87400
C782        C  0.24630786  0.57296706  0.73662697     0.87300
C783        C  0.28041670  0.63412912  0.71600863     0.87400
C784        C  0.18967815  0.59435933  0.70123291     0.87500
O785        O  0.31209654  0.73418224  0.88170886    -0.74800
O786        O  0.27380592  0.75222963  0.94400718    -0.74800
O787        O  0.28782358  0.77736866  0.89915300    -0.74900
O788        O  0.29711624  0.70873826  0.92544774    -0.74900
O789        O  0.33411176  0.72044856  0.94554968    -0.74800
O790        O  0.32524550  0.79057965  0.91779217    -0.74800
O791        O  0.31100042  0.76512348  0.96309943    -0.74800
O792        O  0.34930420  0.74606229  0.90161332    -0.74900
Ni793      Ni  0.29137486  0.74277586  0.91200937     1.25400
Ni794      Ni  0.33123297  0.75610635  0.93282423     1.25400
C795        C  0.33710466  0.73731957  0.88145724     0.87400
C796        C  0.28622857  0.76104305  0.96413190     0.87300
C797        C  0.30536168  0.79489654  0.90279684     0.87400
C798        C  0.31703358  0.70283179  0.93939763     0.87500
O799        O  0.37522265  0.72135660  0.72832384    -0.74800
O800        O  0.43892449  0.75974185  0.74354979    -0.74800
O801        O  0.41754520  0.73662827  0.70050562    -0.74900
O802        O  0.39519315  0.74491720  0.77095501    -0.74900
O803        O  0.41436333  0.70721632  0.78238967    -0.74800
O804        O  0.43766866  0.69932390  0.71099933    -0.74800
O805        O  0.45824003  0.72221197  0.75477766    -0.74800
O806        O  0.39544121  0.68395397  0.73870320    -0.74900
Ni807      Ni  0.40617838  0.74207480  0.73553548     1.25400
Ni808      Ni  0.42732784  0.70195016  0.74719289     1.25400
C809        C  0.37490101  0.69626859  0.73111959     0.87400
C810        C  0.45939613  0.74712153  0.75125888     0.87300
C811        C  0.43032729  0.71614632  0.69373202     0.87400
C812        C  0.39930538  0.72671228  0.78771520     0.87500
O813        O  0.13848313  0.82567044  0.80183225    -0.74800
O814        O  0.07703199  0.78417979  0.78647142    -0.74800
O815        O  0.12065574  0.79956676  0.75942781    -0.74900
O816        O  0.09613626  0.80940570  0.82882282    -0.74900
O817        O  0.07513776  0.84575203  0.81658953    -0.74800
O818        O  0.09931894  0.83542240  0.74598193    -0.74800
O819        O  0.05619678  0.82059579  0.77405976    -0.74800
O820        O  0.11687390  0.86133245  0.78832587    -0.74900
Ni821      Ni  0.10876387  0.80330923  0.79449084     1.25400
Ni822      Ni  0.08602206  0.84197279  0.78071772     1.25400
C823        C  0.13760304  0.85047552  0.79728325     0.87400
C824        C  0.05611899  0.79592539  0.77859629     0.87300
C825        C  0.11536281  0.81648497  0.74171587     0.87400
C826        C  0.08217335  0.82942556  0.83446027     0.87500
O827        O  0.28918158  0.88837127  0.81633152    -0.74800
O828        O  0.27352622  0.95142337  0.77817785    -0.74800
O829        O  0.31682088  0.93044915  0.80019227    -0.74900
O830        O  0.24597390  0.90858444  0.79359329    -0.74900
O831        O  0.23622339  0.92710054  0.83215160    -0.74800
O832        O  0.30735789  0.95178604  0.83717602    -0.74800
O833        O  0.26260101  0.97097523  0.81564870    -0.74800
O834        O  0.28089596  0.90922515  0.85395259    -0.74900
Ni835      Ni  0.28164613  0.91905857  0.79569849     1.25400
Ni836      Ni  0.27132106  0.94063488  0.83601657     1.25400
C837        C  0.28780215  0.88853886  0.84150920     0.87400
C838        C  0.26595793  0.97191260  0.79077007     0.87300
C839        C  0.32404398  0.94431100  0.81984676     0.87400
C840        C  0.22985767  0.91299727  0.81224580     0.87500
O841        O  0.13808967  0.72061222  0.29780504    -0.74800
O842        O  0.07732464  0.76287225  0.28175836    -0.74800
O843        O  0.09639210  0.73894505  0.32486276    -0.74900
O844        O  0.12018732  0.74546110  0.25492502    -0.74900
O845        O  0.09823488  0.70945203  0.24290505    -0.74800
O846        O  0.07428650  0.70274605  0.31433849    -0.74800
O847        O  0.05546902  0.72668023  0.27064279    -0.74800
O848        O  0.11562131  0.68483723  0.28610543    -0.74900
Ni849      Ni  0.10867385  0.74331702  0.29014460     1.25400
Ni850      Ni  0.08495485  0.70471233  0.27806098     1.25400
C851        C  0.13680372  0.69565933  0.29417874     0.87400
C852        C  0.05603073  0.75155801  0.27422803     0.87300
C853        C  0.08209231  0.71956066  0.33154913     0.87400
C854        C  0.11466425  0.72790603  0.23786765     0.87500
O855        O  0.28841766  0.65887133  0.30864346    -0.74800
O856        O  0.27581100  0.59430981  0.27097419    -0.74800
O857        O  0.24635560  0.63688005  0.28519407    -0.74900
O858        O  0.31826181  0.61734563  0.29386540    -0.74900
O859        O  0.30814812  0.59601807  0.33067121    -0.74800
O860        O  0.23654508  0.61873937  0.32386293    -0.74800
O861        O  0.26436589  0.57522897  0.30847214    -0.74800
O862        O  0.28015788  0.63798359  0.34626176    -0.74900
Ni863      Ni  0.28253363  0.62746791  0.28822805     1.25400
Ni864      Ni  0.27188229  0.60613941  0.32853712     1.25400
C865        C  0.28626966  0.65885454  0.33377892     0.87400
C866        C  0.26826197  0.57383743  0.28370558     0.87300
C867        C  0.23008659  0.63254614  0.30380688     0.87400
C868        C  0.32522199  0.60378732  0.31385535     0.87500
O869        O  0.20349523  0.73332729  0.14564377    -0.74800
O870        O  0.24452291  0.75037109  0.08459380    -0.74800
O871        O  0.22832139  0.77630440  0.12843559    -0.74900
O872        O  0.22043977  0.70687571  0.10321205    -0.74900
O873        O  0.18395314  0.71800233  0.08170584    -0.74800
O874        O  0.19142769  0.78864315  0.10833217    -0.74800
O875        O  0.20772977  0.76248917  0.06428497    -0.74800
O876        O  0.16700096  0.74459880  0.12420992    -0.74900
Ni877      Ni  0.22555475  0.74135847  0.11608562     1.25400
Ni878      Ni  0.18631411  0.75393285  0.09369725     1.25400
C879        C  0.17847565  0.73651704  0.14499570     0.87400
C880        C  0.23258470  0.75887293  0.06405531     0.87300
C881        C  0.21054614  0.79344589  0.12414458     0.87400
C882        C  0.20063038  0.70058550  0.08917866     0.87500
O883        O  0.30453892  0.81158215  0.37823948    -0.74800
O884        O  0.26398728  0.79554024  0.44008096    -0.74800
O885        O  0.28992512  0.83823553  0.42195466    -0.74900
O886        O  0.27803760  0.76948239  0.39530220    -0.74900
O887        O  0.31478046  0.75526652  0.41430046    -0.74800
O888        O  0.32583996  0.82442803  0.44268985    -0.74800
O889        O  0.30031890  0.78086715  0.45943475    -0.74800
O890        O  0.34087790  0.79853937  0.39900052    -0.74900
Ni891      Ni  0.28275868  0.80418071  0.40829632     1.25400
Ni892      Ni  0.32164237  0.78921054  0.42971077     1.25400
C893        C  0.32939587  0.80724868  0.37846017     0.87400
C894        C  0.27571368  0.78593170  0.46026796     0.87300
C895        C  0.31005217  0.84298541  0.43622327     0.87400
C896        C  0.29516773  0.75147926  0.39885390     0.87500
O897        O  0.36951373  0.82091819  0.22497529    -0.74800
O898        O  0.43271590  0.78196897  0.24027841    -0.74800
O899        O  0.38897380  0.79682482  0.26771607    -0.74900
O900        O  0.41164192  0.80530006  0.19738647    -0.74900
O901        O  0.43290406  0.84211987  0.20813083    -0.74800
O902        O  0.40794360  0.83453546  0.27928232    -0.74800
O903        O  0.45223929  0.81919529  0.25235566    -0.74800
O904        O  0.39031916  0.85808736  0.23516285    -0.74900
Ni905      Ni  0.40014026  0.79985275  0.23230614     1.25400
Ni906      Ni  0.42173685  0.83972125  0.24424781     1.25400
C907        C  0.36965181  0.84604312  0.22745703     0.87400
C908        C  0.45322832  0.79438540  0.24833407     0.87300
C909        C  0.39291962  0.81496315  0.28463371     0.87400
C910        C  0.42508745  0.82540505  0.19087363     0.87500
O911        O  0.21716584  0.88859312  0.21156841    -0.74800
O912        O  0.23461141  0.95280088  0.24770814    -0.74800
O913        O  0.19068226  0.93208887  0.22644471    -0.74900
O914        O  0.26067480  0.90801365  0.23375868    -0.74900
O915        O  0.27175580  0.92573937  0.19531953    -0.74800
O916        O  0.20059941  0.95117273  0.18839327    -0.74800
O917        O  0.24538933  0.97093485  0.20945680    -0.74800
O918        O  0.22703689  0.90781931  0.17348376    -0.74900
Ni919      Ni  0.22549314  0.91985706  0.23128351     1.25400
Ni920      Ni  0.23667713  0.93975430  0.19037969     1.25400
C921        C  0.21956318  0.88771208  0.18646938     0.87400
C922        C  0.24210675  0.97282576  0.23427730     0.87300
C923        C  0.18369127  0.94479429  0.20602115     0.87400
C924        C  0.27718235  0.91106365  0.21514966     0.87500
O925        O  0.63733474  0.21432731  0.79686774    -0.74800
O926        O  0.57894207  0.25938536  0.77916240    -0.74800
O927        O  0.59467717  0.23289119  0.82198636    -0.74900
O928        O  0.62303863  0.24166333  0.75365215    -0.74900
O929        O  0.60024630  0.20718006  0.73900240    -0.74800
O930        O  0.57223374  0.19776215  0.80863526    -0.74800
O931        O  0.55687689  0.22430231  0.76547564    -0.74800
O932        O  0.61463243  0.17986043  0.78201660    -0.74900
Ni933      Ni  0.60928977  0.23837886  0.78826445     1.25400
Ni934      Ni  0.58514753  0.20110198  0.77319670     1.25400
C935        C  0.63533882  0.18954750  0.79241215     0.87400
C936        C  0.55760542  0.24885191  0.77057971     0.87300
C937        C  0.57901802  0.21394055  0.82683025     0.87400
C938        C  0.61725772  0.22543851  0.73537959     0.87500
O939        O  0.71671413  0.38599768  0.70082824    -0.74800
O940        O  0.73626486  0.44341442  0.74697341    -0.74800
O941        O  0.69238470  0.42808650  0.72165080    -0.74900
O942        O  0.76075153  0.39955898  0.72713877    -0.74900
O943        O  0.77407834  0.42269752  0.69242483    -0.74800
O944        O  0.70446295  0.45170265  0.68690840    -0.74800
O945        O  0.74905497  0.46603681  0.71188890    -0.74800
O946        O  0.72970869  0.40995724  0.66661302    -0.74900
Ni947      Ni  0.72622778  0.41346118  0.72548280     1.25400
Ni948      Ni  0.73987874  0.43850823  0.68833298     1.25400
C949        C  0.72002613  0.38880746  0.67592123     0.87400
C950        C  0.74486891  0.46482162  0.73660901     0.87300
C951        C  0.68677428  0.44401501  0.70316030     0.87400
C952        C  0.77822487  0.40521563  0.71011878     0.87500
O953        O  0.69765046  0.24042999  0.63690498    -0.74800
O954        O  0.73407095  0.25522615  0.57223489    -0.74800
O955        O  0.71906348  0.28375385  0.61499702    -0.74900
O956        O  0.71352086  0.21207836  0.59529668    -0.74900
O957        O  0.67535084  0.22001724  0.57541427    -0.74800
O958        O  0.68037801  0.29256143  0.59627849    -0.74800
O959        O  0.69570393  0.26381297  0.55297722    -0.74800
O960        O  0.65967539  0.24863055  0.61689883    -0.74900
Ni961      Ni  0.71750316  0.24770455  0.60545062     1.25400
Ni962      Ni  0.67650867  0.25668737  0.58452970     1.25400
C963        C  0.67242631  0.24167815  0.63737149     0.87400
C964        C  0.72064403  0.26100699  0.55164346     0.87300
C965        C  0.70017047  0.29953371  0.61028934     0.87400
C966        C  0.69318770  0.20391059  0.58309101     0.87500
O967        O  0.78581147  0.15253443  0.81531988    -0.74800
O968        O  0.77193006  0.08949518  0.77610505    -0.74800
O969        O  0.74318684  0.13162102  0.79170913    -0.74900
O970        O  0.81447861  0.11138582  0.79862833    -0.74900
O971        O  0.80526521  0.08953877  0.83537826    -0.74800
O972        O  0.73316161  0.11210904  0.82962365    -0.74800
O973        O  0.76132327  0.06927500  0.81328764    -0.74800
O974        O  0.77713241  0.13117357  0.85248898    -0.74900
Ni975      Ni  0.77908672  0.12195799  0.79410145     1.25400
Ni976      Ni  0.76877782  0.09968055  0.83398898     1.25400
C977        C  0.78415897  0.15206924  0.84050401     0.87400
C978        C  0.76509916  0.06860155  0.78848358     0.87300
C979        C  0.72663935  0.12611252  0.80967645     0.87400
C980        C  0.82183795  0.09735739  0.81805379     0.87500
O981        O  0.87456955  0.32243409  0.72507450    -0.74800
O982        O  0.93784202  0.28513069  0.74396097    -0.74800
O983        O  0.89374754  0.30084635  0.76951847    -0.74900
O984        O  0.91745205  0.30577800  0.69928314    -0.74900
O985        O  0.93749411  0.34368990  0.70843288    -0.74800
O986        O  0.91226443  0.33928306  0.77961260    -0.74800
O987        O  0.95676033  0.32343225  0.75372210    -0.74800
O988        O  0.89459006  0.36017253  0.73443831    -0.74900
Ni989      Ni  0.90528636  0.30213052  0.73423362     1.25400
Ni990      Ni  0.92609844  0.34292368  0.74449528     1.25400
C991        C  0.87438793  0.34768192  0.72634777     0.87400
C992        C  0.95802617  0.29844856  0.75130656     0.87300
C993        C  0.89795057  0.31946383  0.78581267     0.87400
C994        C  0.93047192  0.32587188  0.69196918     0.87500
O995        O  0.80974928  0.30919049  0.87722504    -0.74800
O996        O  0.76926175  0.29210552  0.93880211    -0.74800
O997        O  0.79438014  0.33509930  0.92083757    -0.74900
O998        O  0.78372084  0.26640278  0.89407913    -0.74900
O999        O  0.81971722  0.25196431  0.91449150    -0.74800
O1000       O  0.83090800  0.32199550  0.94095814    -0.74800
O1001       O  0.80577866  0.27883161  0.95873896    -0.74800
O1002       O  0.84570803  0.29490172  0.89790663    -0.74900
Ni1003     Ni  0.78791056  0.30110676  0.90709138     1.25400
Ni1004     Ni  0.82676554  0.28639218  0.92883316     1.25400
C1005       C  0.83447518  0.30430067  0.87754797     0.87400
C1006       C  0.78113484  0.28335640  0.95932473     0.87300
C1007       C  0.81454332  0.34020934  0.93486457     0.87400
C1008       C  0.80037053  0.24823025  0.89871124     0.87500
O1009       O  0.29211860  0.15324893  0.70862333    -0.74800
O1010       O  0.27501850  0.09005190  0.74577801    -0.74800
O1011       O  0.31906647  0.11042461  0.72439590    -0.74900
O1012       O  0.24820269  0.13343011  0.73046429    -0.74900
O1013       O  0.23831073  0.11495468  0.69188638    -0.74800
O1014       O  0.30913721  0.09010664  0.68691650    -0.74800
O1015       O  0.26438974  0.07083059  0.70791680    -0.74800
O1016       O  0.28317987  0.13325942  0.67066340    -0.74900
Ni1017     Ni  0.28388528  0.12242365  0.72870421     1.25400
Ni1018     Ni  0.27333109  0.10148334  0.68804309     1.25400
C1019       C  0.29061313  0.15360011  0.68345841     0.87400
C1020       C  0.26737426  0.06977728  0.73287457     0.87300
C1021       C  0.32597503  0.09680912  0.70447492     0.87400
C1022       C  0.23196728  0.12893702  0.71182811     0.87500
O1023       O  0.13951249  0.21401198  0.72482284    -0.74800
O1024       O  0.07954896  0.25658307  0.74293854    -0.74800
O1025       O  0.12390248  0.23979711  0.76809251    -0.74900
O1026       O  0.09664118  0.23181175  0.69935887    -0.74900
O1027       O  0.07530338  0.19552366  0.71142869    -0.74800
O1028       O  0.10243587  0.20416640  0.78179086    -0.74800
O1029       O  0.05830470  0.22053711  0.75550217    -0.74800
O1030       O  0.11765561  0.17851748  0.73825215    -0.74900
Ni1031     Ni  0.11055819  0.23690169  0.73345702     1.25400
Ni1032     Ni  0.08750023  0.19849802  0.74727878     1.25400
C1033       C  0.13837262  0.18912198  0.72894803     0.87400
C1034       C  0.05860546  0.24533863  0.75145935     0.87300
C1035       C  0.11900652  0.22279587  0.78584388     0.87400
C1036       C  0.08227808  0.21208381  0.69367706     0.87500
O1037       O  0.31226301  0.31300903  0.64742378    -0.74800
O1038       O  0.27203102  0.29336767  0.58620998    -0.74800
O1039       O  0.28748675  0.26885537  0.63155196    -0.74900
O1040       O  0.29626475  0.33732236  0.60331146    -0.74900
O1041       O  0.33304141  0.32479788  0.58348728    -0.74800
O1042       O  0.32380951  0.25514369  0.61134806    -0.74800
O1043       O  0.30883654  0.28056449  0.56653373    -0.74800
O1044       O  0.34850150  0.29921039  0.62714239    -0.74900
Ni1045     Ni  0.29061434  0.30347047  0.61776399     1.25400
Ni1046     Ni  0.32976908  0.28938530  0.59633485     1.25400
C1047       C  0.33719444  0.30930054  0.64714558     0.87400
C1048       C  0.28406073  0.28462330  0.56581905     0.87300
C1049       C  0.30465822  0.25107049  0.62719422     0.87400
C1050       C  0.31641949  0.34277796  0.58942133     0.87500
O1051       O  0.37626342  0.32974153  0.79953655    -0.74800
O1052       O  0.44021688  0.29449667  0.78116864    -0.74800
O1053       O  0.41968266  0.31459905  0.82544272    -0.74900
O1054       O  0.39591086  0.30887606  0.75520992    -0.74900
O1055       O  0.41352752  0.34784646  0.74543673    -0.74800
O1056       O  0.43863025  0.35302576  0.81658899    -0.74800
O1057       O  0.45851748  0.33306342  0.77153670    -0.74800
O1058       O  0.39512159  0.36823304  0.79065716    -0.74900
Ni1059     Ni  0.40743603  0.31054227  0.79058090     1.25400
Ni1060     Ni  0.42722638  0.35188902  0.78059935     1.25400
C1061       C  0.37521088  0.35489178  0.79815612     0.87400
C1062       C  0.46024438  0.30812132  0.77419151     0.87300
C1063       C  0.43250102  0.33483273  0.83292253     0.87400
C1064       C  0.39991156  0.32758762  0.73902811     0.87500
O1065       O  0.21960183  0.38933309  0.81593771    -0.74800
O1066       O  0.23591767  0.45207907  0.77772675    -0.74800
O1067       O  0.26261165  0.40833620  0.79314295    -0.74900
O1068       O  0.19246671  0.43187577  0.80011213    -0.74900
O1069       O  0.20237493  0.45232287  0.83759122    -0.74800
O1070       O  0.27372201  0.42826244  0.83063792    -0.74800
O1071       O  0.24643826  0.47194077  0.81526415    -0.74800
O1072       O  0.22986539  0.40974771  0.85336335    -0.74900
Ni1073     Ni  0.22731986  0.41983748  0.79533810     1.25400
Ni1074     Ni  0.23854090  0.44143462  0.83550786     1.25400
C1075       C  0.22264346  0.38913793  0.84093199     0.87400
C1076       C  0.24333373  0.47262286  0.79032484     0.87300
C1077       C  0.27926118  0.41301522  0.81132729     0.87400
C1078       C  0.18554637  0.44512688  0.82021100     0.87500
O1079       O  0.20665658  0.23432303  0.87995588    -0.74800
O1080       O  0.24457694  0.25116967  0.94327749    -0.74800
O1081       O  0.22044203  0.20829953  0.92392932    -0.74900
O1082       O  0.23141781  0.27714188  0.89832977    -0.74900
O1083       O  0.19410838  0.29050287  0.91695536    -0.74800
O1084       O  0.18307777  0.22077123  0.94280616    -0.74800
O1085       O  0.20716839  0.26403823  0.96173033    -0.74800
O1086       O  0.16951145  0.24717476  0.89917919    -0.74900
Ni1087     Ni  0.22717888  0.24236347  0.91077887     1.25400
Ni1088     Ni  0.18722279  0.25619284  0.93093471     1.25400
C1089       C  0.18170893  0.23800408  0.87925315     0.87400
C1090       C  0.23180173  0.25948605  0.96338561     0.87300
C1091       C  0.19980405  0.20287081  0.93707251     0.87400
C1092       C  0.21404353  0.29479521  0.90221242     0.87500
O1093       O  0.31229026  0.22866176  0.14605267    -0.74800
O1094       O  0.27377401  0.24727086  0.08342633    -0.74800
O1095       O  0.29733636  0.20363501  0.10171452    -0.74900
O1096       O  0.28756070  0.27211583  0.12903772    -0.74900
O1097       O  0.32506899  0.28565977  0.11107836    -0.74800
O1098       O  0.33420535  0.21613254  0.08203827    -0.74800
O1099       O  0.31104877  0.26093691  0.06525251    -0.74800
O1100       O  0.34926486  0.24115443  0.12635649    -0.74900
Ni1101     Ni  0.29136021  0.23757600  0.11565898     1.25400
Ni1102     Ni  0.33115409  0.25153653  0.09540678     1.25400
C1103       C  0.33737032  0.23169310  0.14627634     0.87400
C1104       C  0.28645369  0.25628139  0.06353298     0.87300
C1105       C  0.31736802  0.19819099  0.08770054     0.87400
C1106       C  0.30520004  0.28968631  0.12611375     0.87500
O1107       O  0.28943985  0.38623548  0.21003672    -0.74800
O1108       O  0.27489478  0.45215250  0.24481653    -0.74800
O1109       O  0.24607758  0.40960694  0.22953412    -0.74900
O1110       O  0.31833465  0.42738906  0.22645239    -0.74900
O1111       O  0.31188470  0.44821293  0.18840525    -0.74800
O1112       O  0.23942927  0.42647149  0.18959457    -0.74800
O1113       O  0.26675025  0.47015128  0.20581731    -0.74800
O1114       O  0.28459935  0.40624177  0.17137901    -0.74900
Ni1115     Ni  0.28231208  0.41826038  0.22917929     1.25400
Ni1116     Ni  0.27531291  0.43858478  0.18748485     1.25400
C1117       C  0.28997019  0.38574597  0.18477535     0.87400
C1118       C  0.26910369  0.47231416  0.23071752     0.87300
C1119       C  0.23132054  0.41354590  0.20965333     0.87400
C1120       C  0.32715498  0.44020515  0.20683644     0.87500
O1121       O  0.22310594  0.15491216  0.32050886    -0.74800
O1122       O  0.23888858  0.09364970  0.27868291    -0.74800
O1123       O  0.19587984  0.11359653  0.30221185    -0.74900
O1124       O  0.26618964  0.13675104  0.29620068    -0.74900
O1125       O  0.27760058  0.11488236  0.33244572    -0.74800
O1126       O  0.20586189  0.09154800  0.33871279    -0.74800
O1127       O  0.24943726  0.07228094  0.31527389    -0.74800
O1128       O  0.23427197  0.13260840  0.35652867    -0.74900
Ni1129     Ni  0.23078712  0.12540427  0.29800514     1.25400
Ni1130     Ni  0.24226052  0.10190132  0.33693809     1.25400
C1131       C  0.22611222  0.15361257  0.34553334     0.87400
C1132       C  0.24574320  0.07235188  0.29044815     0.87300
C1133       C  0.18896249  0.09952969  0.32171964     0.87400
C1134       C  0.28295458  0.13122741  0.31402296     0.87500
O1135       O  0.37843238  0.21463267  0.30251709    -0.74800
O1136       O  0.43860529  0.25472142  0.28135304    -0.74800
O1137       O  0.39378573  0.23731152  0.25766720    -0.74900
O1138       O  0.42200938  0.23276130  0.32641368    -0.74900
O1139       O  0.44258787  0.19567896  0.31606371    -0.74800
O1140       O  0.41436181  0.20044272  0.24591128    -0.74800
O1141       O  0.45903777  0.21763216  0.27051900    -0.74800
O1142       O  0.39916459  0.17785009  0.29127927    -0.74900
Ni1143     Ni  0.40758591  0.23622276  0.29226981     1.25400
Ni1144     Ni  0.42965299  0.19663420  0.28045564     1.25400
C1145       C  0.37886368  0.18950304  0.30023358     0.87400
C1146       C  0.45916258  0.24261865  0.27325575     0.87300
C1147       C  0.39813832  0.21911010  0.24097280     0.87400
C1148       C  0.43629204  0.21331150  0.33302838     0.87500
O1149       O  0.14191055  0.32387606  0.22129689    -0.74800
O1150       O  0.08250208  0.28102413  0.24180771    -0.74800
O1151       O  0.09799335  0.30584809  0.19776064    -0.74900
O1152       O  0.12808697  0.29784874  0.26516070    -0.74900
O1153       O  0.10695566  0.33342637  0.27955963    -0.74800
O1154       O  0.07692724  0.34202879  0.21038684    -0.74800
O1155       O  0.06198015  0.31727137  0.25504461    -0.74800
O1156       O  0.12034284  0.35920323  0.23553085    -0.74900
Ni1157     Ni  0.11329420  0.30078675  0.23113800     1.25400
Ni1158     Ni  0.09070284  0.33916919  0.24571367     1.25400
C1159       C  0.14069247  0.34881985  0.22526269     0.87400
C1160       C  0.06190673  0.29251865  0.25088446     0.87300
C1161       C  0.08331455  0.32542241  0.19244185     0.87400
C1162       C  0.12358795  0.31476196  0.28309016     0.87500
O1163       O  0.21104449  0.30412166  0.37769661    -0.74800
O1164       O  0.24686202  0.29190837  0.44337936    -0.74800
O1165       O  0.23194347  0.26188910  0.40187616    -0.74900
O1166       O  0.22694424  0.33449244  0.41809345    -0.74900
O1167       O  0.18920815  0.32737789  0.43920088    -0.74800
O1168       O  0.19270350  0.25446941  0.41998126    -0.74800
O1169       O  0.20837839  0.28348071  0.46231135    -0.74800
O1170       O  0.17288648  0.29814552  0.39820784    -0.74900
Ni1171     Ni  0.23064879  0.29832088  0.40965625     1.25400
Ni1172     Ni  0.18948964  0.29057200  0.43073964     1.25400
C1173       C  0.18581891  0.30323937  0.37733493     0.87400
C1174       C  0.23335472  0.28568087  0.46377627     0.87300
C1175       C  0.21279427  0.24655809  0.40704490     0.87400
C1176       C  0.20713521  0.34300379  0.43083482     0.87500
O1177       O  0.69912157  0.30372187  0.14208242    -0.74800
O1178       O  0.73759321  0.28863445  0.07884189    -0.74800
O1179       O  0.71471957  0.33120623  0.09998861    -0.74900
O1180       O  0.72296288  0.26070892  0.12193924    -0.74900
O1181       O  0.68530912  0.24941721  0.10251662    -0.74800
O1182       O  0.67735419  0.32121052  0.07961285    -0.74800
O1183       O  0.70003453  0.27777325  0.05910822    -0.74800
O1184       O  0.66192154  0.29281929  0.12158458    -0.74900
Ni1185     Ni  0.71996660  0.29630242  0.11137825     1.25400
Ni1186     Ni  0.67987999  0.28479744  0.08986945     1.25400
C1187       C  0.67403687  0.30113131  0.14194505     0.87400
C1188       C  0.72479457  0.28184992  0.05816783     0.87300
C1189       C  0.69458612  0.33822389  0.08679926     0.87400
C1190       C  0.70521078  0.24367988  0.11695438     0.87500
O1191       O  0.64070071  0.32664020  0.29528978    -0.74800
O1192       O  0.57874514  0.28612504  0.28099477    -0.74800
O1193       O  0.62085058  0.30203344  0.25290153    -0.74900
O1194       O  0.59960505  0.30979324  0.32374643    -0.74900
O1195       O  0.57715452  0.34601895  0.31370420    -0.74800
O1196       O  0.60107333  0.33967398  0.24215010    -0.74800
O1197       O  0.55810930  0.32292580  0.26948100    -0.74800
O1198       O  0.61872672  0.36338070  0.28604852    -0.74900
Ni1199     Ni  0.61066625  0.30480865  0.28857658     1.25400
Ni1200     Ni  0.58786210  0.34426344  0.27741099     1.25400
C1201       C  0.63976849  0.35176126  0.29308163     0.87400
C1202       C  0.55803882  0.29803236  0.27295443     0.87300
C1203       C  0.61539525  0.31981449  0.23611960     0.87400
C1204       C  0.58560288  0.32935605  0.33067199     0.87500
O1205       O  0.71613765  0.15509534  0.20620145    -0.74800
O1206       O  0.73332946  0.09748883  0.25226475    -0.74800
O1207       O  0.75885360  0.14094711  0.23424683    -0.74900
O1208       O  0.69051399  0.11268821  0.22499659    -0.74900
O1209       O  0.70408191  0.08956925  0.19049694    -0.74800
O1210       O  0.77362322  0.11784897  0.20014224    -0.74800
O1211       O  0.74729302  0.07477411  0.21765579    -0.74800
O1212       O  0.73088820  0.13165419  0.17222090    -0.74900
Ni1213     Ni  0.72426126  0.12733377  0.23070398     1.25400
Ni1214     Ni  0.73950311  0.10256389  0.19396555     1.25400
C1215       C  0.72112778  0.15274956  0.18159243     0.87400
C1216       C  0.74266117  0.07626932  0.24228509     0.87300
C1217       C  0.77736843  0.13480652  0.21846820     0.87400
C1218       C  0.68567735  0.09689304  0.20613075     0.87500
O1219       O  0.87570072  0.21715310  0.22953880    -0.74800
O1220       O  0.94055493  0.25297276  0.24404776    -0.74800
O1221       O  0.91680284  0.23405207  0.20044480    -0.74900
O1222       O  0.89872454  0.23686233  0.27269105    -0.74900
O1223       O  0.91691417  0.19752175  0.27950042    -0.74800
O1224       O  0.93755398  0.19607454  0.20692696    -0.74800
O1225       O  0.95983272  0.21450355  0.25172354    -0.74800
O1226       O  0.89588788  0.17867337  0.23494257    -0.74900
Ni1227     Ni  0.90733932  0.23665390  0.23646286     1.25400
Ni1228     Ni  0.92840107  0.19535846  0.24353756     1.25400
C1229       C  0.87507400  0.19194465  0.23028512     0.87400
C1230       C  0.96103694  0.23959857  0.25014435     0.87300
C1231       C  0.93000700  0.21464398  0.19161406     0.87400
C1232       C  0.90349045  0.21724848  0.28754582     0.87500
O1233       O  0.81256268  0.23051908  0.37424240    -0.74800
O1234       O  0.76790301  0.25017505  0.43234932    -0.74800
O1235       O  0.78727617  0.27479898  0.38859532    -0.74900
O1236       O  0.79248472  0.20575815  0.41635392    -0.74900
O1237       O  0.82806675  0.21724331  0.43914407    -0.74800
O1238       O  0.82222369  0.28768786  0.41170900    -0.74800
O1239       O  0.80351236  0.26180182  0.45484480    -0.74800
O1240       O  0.84741149  0.24332820  0.39745875    -0.74900
Ni1241     Ni  0.78870203  0.24000625  0.40214690     1.25400
Ni1242     Ni  0.82645190  0.25302922  0.42671076     1.25400
C1243       C  0.83751057  0.23364162  0.37651661     0.87400
C1244       C  0.77865473  0.25861421  0.45365103     0.87300
C1245       C  0.80430520  0.29228350  0.39452967     0.87400
C1246       C  0.81164657  0.19968277  0.43133699     0.87500
O1247       O  0.79510957  0.38825439  0.30829307    -0.74800
O1248       O  0.77946364  0.45225910  0.27109234    -0.74800
O1249       O  0.82233916  0.43134756  0.29411953    -0.74900
O1250       O  0.75242732  0.40817464  0.28446081    -0.74900
O1251       O  0.74042267  0.42600567  0.32259418    -0.74800
O1252       O  0.81124834  0.45104784  0.33151306    -0.74800
O1253       O  0.76727287  0.47066186  0.30881219    -0.74800
O1254       O  0.78430539  0.40769536  0.34591165    -0.74900
Ni1255     Ni  0.78764424  0.41944310  0.28810902     1.25400
Ni1256     Ni  0.77529819  0.43967709  0.32848759     1.25400
C1257       C  0.79238372  0.38746959  0.33336739     0.87400
C1258       C  0.77136266  0.47232538  0.28405507     0.87300
C1259       C  0.82867043  0.44454947  0.31446291     0.87400
C1260       C  0.73543303  0.41150171  0.30254802     0.87500
O1261       O  0.81462926  0.81598538  0.14408165    -0.74800
O1262       O  0.77708568  0.79187646  0.08291712    -0.74800
O1263       O  0.79316314  0.77015394  0.12948620    -0.74900
O1264       O  0.79786852  0.83776553  0.09881377    -0.74900
O1265       O  0.83561014  0.82693173  0.07979912    -0.74800
O1266       O  0.83092366  0.75819153  0.11085020    -0.74800
O1267       O  0.81491668  0.78063728  0.06432261    -0.74800
O1268       O  0.85217217  0.80454962  0.12493312    -0.74900
Ni1269     Ni  0.79427682  0.80419541  0.11439344     1.25400
Ni1270     Ni  0.83468837  0.79204417  0.09420772     1.25400
C1271       C  0.83977161  0.81411486  0.14457876     0.87400
C1272       C  0.79000773  0.78352608  0.06289729     0.87300
C1273       C  0.81183287  0.75366486  0.12666675     0.87400
C1274       C  0.81774566  0.84395077  0.08486685     0.87500
O1275       O  0.72475238  0.89419397  0.32304946    -0.74800
O1276       O  0.73964987  0.95803999  0.28640788    -0.74800
O1277       O  0.76762394  0.91548325  0.30161549    -0.74900
O1278       O  0.69637072  0.93593697  0.30733586    -0.74900
O1279       O  0.70466531  0.95604102  0.34531594    -0.74800
O1280       O  0.77676062  0.93444954  0.34017173    -0.74800
O1281       O  0.74858990  0.97762773  0.32458444    -0.74800
O1282       O  0.73289382  0.91415936  0.36125909    -0.74900
Ni1283     Ni  0.73181154  0.92531331  0.30322362     1.25400
Ni1284     Ni  0.74111455  0.94642524  0.34416132     1.25400
C1285       C  0.72680246  0.89361380  0.34814553     0.87400
C1286       C  0.74614045  0.97853373  0.29956597     0.87300
C1287       C  0.78354662  0.92050058  0.32032093     0.87400
C1288       C  0.68847434  0.94884547  0.32735215     0.87500
O1289       O  0.87509842  0.83521116  0.30172370    -0.74800
O1290       O  0.93579782  0.79504710  0.28098529    -0.74800
O1291       O  0.91773276  0.81593983  0.32616838    -0.74900
O1292       O  0.89175812  0.81353598  0.25634291    -0.74900
O1293       O  0.91335166  0.85042839  0.24644231    -0.74800
O1294       O  0.93867080  0.85337048  0.31763378    -0.74800
O1295       O  0.95682504  0.83244736  0.27234983    -0.74800
O1296       O  0.89662887  0.87201612  0.29175492    -0.74900
Ni1297     Ni  0.90438862  0.81354361  0.29149544     1.25400
Ni1298     Ni  0.92721143  0.85331743  0.28159992     1.25400
C1299       C  0.87612413  0.86039258  0.30032502     0.87400
C1300       C  0.95677400  0.80740193  0.27429370     0.87300
C1301       C  0.93172857  0.83531721  0.33381743     0.87400
C1302       C  0.89752139  0.83180953  0.24018914     0.87500
O1303       O  0.79833594  0.65891030  0.21232449    -0.74800
O1304       O  0.77981457  0.59513133  0.24842114    -0.74800
O1305       O  0.82379667  0.61495800  0.22677386    -0.74900
O1306       O  0.75427810  0.64017371  0.23471305    -0.74900
O1307       O  0.74256782  0.62278932  0.19626421    -0.74800
O1308       O  0.81282635  0.59601363  0.18890129    -0.74800
O1309       O  0.76799689  0.57725329  0.21027552    -0.74800
O1310       O  0.78765945  0.63993531  0.17428955    -0.74900
Ni1311     Ni  0.78930917  0.62785605  0.23197361     1.25400
Ni1312     Ni  0.77721438  0.60822230  0.19114438     1.25400
C1313       C  0.79653922  0.65959859  0.18716512     0.87400
C1314       C  0.77169540  0.57529479  0.23507500     0.87300
C1315       C  0.83011959  0.60191330  0.20631687     0.87400
C1316       C  0.73747754  0.63729366  0.21628184     0.87500
O1317       O  0.70411575  0.73508417  0.37836655    -0.74800
O1318       O  0.74447865  0.75027763  0.44090504    -0.74800
O1319       O  0.71961843  0.70807502  0.42117577    -0.74900
O1320       O  0.73000601  0.77751084  0.39715616    -0.74900
O1321       O  0.69362807  0.79088781  0.41746866    -0.74800
O1322       O  0.68303925  0.72025328  0.44164913    -0.74800
O1323       O  0.70769972  0.76295701  0.46081393    -0.74800
O1324       O  0.66797546  0.74827599  0.39913359    -0.74900
Ni1325     Ni  0.72590698  0.74240478  0.40869004     1.25400
Ni1326     Ni  0.68682821  0.75611394  0.43053569     1.25400
C1327       C  0.67919857  0.73911906  0.37863009     0.87400
C1328       C  0.73228657  0.75802839  0.46160522     0.87300
C1329       C  0.69961459  0.70243015  0.43512606     0.87400
C1330       C  0.71337632  0.79548712  0.40254285     0.87500
O1331       O  0.57743450  0.69753043  0.20836645    -0.74800
O1332       O  0.60177502  0.70349208  0.27972618    -0.74800
O1333       O  0.55711200  0.71821440  0.25259381    -0.74900
O1334       O  0.62032160  0.68206865  0.23507937    -0.74900
O1335       O  0.63992869  0.72024295  0.22630762    -0.74800
O1336       O  0.57545949  0.75669586  0.24248193    -0.74800
O1337       O  0.61950123  0.74238035  0.26985263    -0.74800
O1338       O  0.59710868  0.73550099  0.19899568    -0.74900
Ni1339     Ni  0.58837963  0.69904596  0.24444574     1.25400
Ni1340     Ni  0.60862119  0.74012314  0.23417352     1.25400
C1341       C  0.58391040  0.71539322  0.19180521     0.87400
C1342       C  0.61556879  0.72367015  0.28607038     0.87300
C1343       C  0.55526220  0.74303305  0.24900319     0.87400
C1344       C  0.64048504  0.69502487  0.22776269     0.87500
C1345       C  0.64054153  0.74988504  0.35093386    -0.26700
C1346       C  0.66263115  0.73383560  0.35514834    -0.14700
C1347       C  0.66751751  0.71283039  0.33764583     0.35900
C1348       C  0.65032668  0.70862102  0.31630656    -0.26100
C1349       C  0.62881094  0.72527809  0.31176094    -0.15400
C1350       C  0.62375427  0.74607101  0.32944423     0.37000
N1351       N  0.60208257  0.76390708  0.32607816    -0.89600
H1352       H  0.63649398  0.76601474  0.36424409     0.18100
H1353       H  0.65449184  0.69306412  0.30235818     0.18100
N1354       N  0.68959311  0.69569491  0.34165436    -0.88600
H1355       H  0.59001422  0.76212993  0.34258427     0.35500
H1356       H  0.59041535  0.75878866  0.30999482     0.40600
H1357       H  0.70659188  0.70650957  0.33770845     0.40200
H1358       H  0.68931776  0.68032772  0.32800678     0.35100
C1359       C  0.68840112  0.69090059  0.23278403    -0.26700
C1360       C  0.66510698  0.68065083  0.22245154    -0.14700
C1361       C  0.66577212  0.65635514  0.20878329     0.35900
C1362       C  0.68954933  0.64264276  0.20644875    -0.26100
C1363       C  0.71265548  0.65238235  0.21793499    -0.15400
C1364       C  0.71213441  0.67715445  0.23070045     0.37000
N1365       N  0.73577923  0.68848733  0.24131387    -0.89600
H1366       H  0.68797235  0.70952093  0.24313039     0.18100
H1367       H  0.68982619  0.62401275  0.19612203     0.18100
N1368       N  0.64283156  0.64539389  0.19664835    -0.88600
H1369       H  0.73187711  0.70646537  0.25046368     0.35500
H1370       H  0.74826463  0.69257287  0.22554419     0.40600
H1371       H  0.63482210  0.65941315  0.18395037     0.40200
H1372       H  0.62908259  0.64092539  0.21117751     0.35100
C1373       C  0.81298839  0.88425324  0.33220392    -0.26700
C1374       C  0.80940487  0.90819762  0.31909132    -0.14700
C1375       C  0.82820213  0.91701601  0.30098440     0.35900
C1376       C  0.85032143  0.90142804  0.29602095    -0.26100
C1377       C  0.85343258  0.87674154  0.30807785    -0.15400
C1378       C  0.83487853  0.86832763  0.32688410     0.37000
N1379       N  0.83811522  0.84365221  0.34023388    -0.89600
H1380       H  0.79802525  0.87743976  0.34572530     0.18100
H1381       H  0.86459413  0.90809218  0.28172898     0.18100
N1382       N  0.82446143  0.94149073  0.28736656    -0.88600
H1383       H  0.82246586  0.84027325  0.35307986     0.35500
H1384       H  0.85502371  0.84506634  0.35183954     0.40600
H1385       H  0.80808285  0.93945467  0.27512095     0.40200
H1386       H  0.84042470  0.94540183  0.27507202     0.35100
C1387       C  0.71099816  0.86851994  0.38698689    -0.26700
C1388       C  0.72300308  0.86868380  0.36214461    -0.14700
C1389       C  0.73244438  0.84509908  0.35136801     0.35900
C1390       C  0.72922033  0.82168906  0.36517030    -0.26100
C1391       C  0.71676140  0.82122420  0.38976481    -0.15400
C1392       C  0.70768938  0.84490164  0.40095779     0.37000
N1393       N  0.69555434  0.84494998  0.42643563    -0.89600
H1394       H  0.70410958  0.88681596  0.39541527     0.18100
H1395       H  0.73635812  0.80366933  0.35634622     0.18100
N1396       N  0.74603585  0.84492433  0.32672763    -0.88600
H1397       H  0.68991121  0.86399015  0.43169844     0.35500
H1398       H  0.70974582  0.83908151  0.44008777     0.40600
H1399       H  0.73604691  0.83226577  0.31396989     0.40200
H1400       H  0.76485131  0.83730329  0.32984468     0.35100
C1401       C  0.81764258  0.70536939  0.13217097    -0.26700
C1402       C  0.81134520  0.72980344  0.14306412    -0.14700
C1403       C  0.80337789  0.73133108  0.16965411     0.35900
C1404       C  0.79984188  0.70815004  0.18413249    -0.26100
C1405       C  0.80406868  0.68354060  0.17258433    -0.15400
C1406       C  0.81390027  0.68220921  0.14665443     0.37000
N1407       N  0.82001065  0.65736752  0.13491816    -0.89600
H1408       H  0.82441058  0.70414218  0.11203138     0.18100
H1409       H  0.79279455  0.70928957  0.20417713     0.18100
N1410       N  0.79866495  0.75644969  0.18175543    -0.88600
H1411       H  0.83982109  0.65756913  0.12953762     0.35500
H1412       H  0.80878216  0.65541570  0.11781131     0.40600
H1413       H  0.81654080  0.76657165  0.18229152     0.40200
H1414       H  0.79269760  0.75412328  0.20126449     0.35100
C1415       C  0.85812119  0.83841057  0.21311844    -0.26700
C1416       C  0.88469982  0.83130347  0.21437564    -0.14700
C1417       C  0.89697997  0.82038139  0.19208515     0.35900
C1418       C  0.88207029  0.81607187  0.16933066    -0.26100
C1419       C  0.85504829  0.82205749  0.16826086    -0.15400
C1420       C  0.84322578  0.83402668  0.19031442     0.37000
N1421       N  0.81606500  0.84133486  0.18995799    -0.89600
H1422       H  0.84861391  0.84664605  0.23030663     0.18100
H1423       H  0.89166762  0.80696997  0.15266941     0.18100
N1424       N  0.92401911  0.81217940  0.19216018    -0.88600
H1425       H  0.81482628  0.86148249  0.19379414     0.35500
H1426       H  0.80655330  0.83136165  0.20517545     0.40600
H1427       H  0.93314488  0.81591909  0.21014767     0.40200
H1428       H  0.93393145  0.82347360  0.17817679     0.35100
C1429       C  0.76668645  0.52110864  0.28657773    -0.26700
C1430       C  0.76806930  0.49831393  0.27093259    -0.14700
C1431       C  0.76820620  0.50118022  0.24335352     0.35900
C1432       C  0.76806179  0.52641872  0.23215924    -0.26100
C1433       C  0.76810595  0.54921274  0.24787213    -0.15400
C1434       C  0.76687822  0.54632987  0.27539690     0.37000
N1435       N  0.76612105  0.56889871  0.29220608    -0.89600
H1436       H  0.76641625  0.51951286  0.30779879     0.18100
H1437       H  0.76893100  0.52806705  0.21095637     0.18100
N1438       N  0.76881590  0.47861622  0.22652966    -0.88600
H1439       H  0.78227752  0.56802315  0.30488049     0.35500
H1440       H  0.74906557  0.56781803  0.30356937     0.40600
H1441       H  0.78559554  0.47987124  0.21477531     0.40200
H1442       H  0.75237057  0.47932611  0.21422500     0.35100
C1443       C  0.80043012  0.31539270  0.35216754    -0.26700
C1444       C  0.80374978  0.31713799  0.37950112    -0.14700
C1445       C  0.80511346  0.34212981  0.39135579     0.35900
C1446       C  0.80208395  0.36468864  0.37582175    -0.26100
C1447       C  0.79808852  0.36300527  0.34841706    -0.15400
C1448       C  0.79798610  0.33791995  0.33642823     0.37000
N1449       N  0.79454653  0.33517510  0.30852268    -0.89600
H1450       H  0.79973032  0.29617237  0.34298871     0.18100
H1451       H  0.80248671  0.38370881  0.38539821     0.18100
N1452       N  0.80837353  0.34517405  0.41914323    -0.88600
H1453       H  0.79298324  0.31537170  0.30325995     0.35500
H1454       H  0.81164466  0.34213266  0.29954889     0.40600
H1455       H  0.82628621  0.33675596  0.42457620     0.40200
H1456       H  0.79323910  0.33501589  0.42859523     0.35100
C1457       C  0.86840817  0.20140238  0.31642371    -0.26700
C1458       C  0.89084412  0.21705473  0.31331772    -0.14700
C1459       C  0.89660437  0.23675987  0.33174275     0.35900
C1460       C  0.87918411  0.24115889  0.35258539    -0.26100
C1461       C  0.85564039  0.22679310  0.35483509    -0.15400
C1462       C  0.85041637  0.20632478  0.33676997     0.37000
N1463       N  0.82695038  0.19075944  0.33890430    -0.89600
H1464       H  0.86389559  0.18662156  0.30173725     0.18100
H1465       H  0.88348261  0.25671832  0.36648895     0.18100
N1466       N  0.91954356  0.25292096  0.32848027    -0.88600
H1467       H  0.82721556  0.17537676  0.32527435     0.35500
H1468       H  0.81112846  0.20269967  0.33357324     0.40600
H1469       H  0.93598694  0.24074667  0.33022040     0.40200
H1470       H  0.92086274  0.26678277  0.34359834     0.35100
C1471       C  0.75608641  0.02934631  0.24613657    -0.26700
C1472       C  0.74714912  0.05240706  0.25860310    -0.14700
C1473       C  0.74090686  0.05132137  0.28560932     0.35900
C1474       C  0.74217315  0.02722400  0.29898704    -0.26100
C1475       C  0.74928145  0.00397556  0.28591107    -0.15400
C1476       C  0.75710178  0.00529611  0.25945634     0.37000
N1477       N  0.76599674  0.98224849  0.24596062    -0.89600
H1478       H  0.76157810  0.02962797  0.22558473     0.18100
H1479       H  0.73630824  0.02654342  0.31943475     0.18100
N1480       N  0.73258490  0.07434834  0.29946122    -0.88600
H1481       H  0.78506296  0.98578004  0.23921696     0.35500
H1482       H  0.75389617  0.97929634  0.22960542     0.40600
H1483       H  0.74544537  0.07734362  0.31521719     0.40200
H1484       H  0.71387253  0.07077850  0.30711408     0.35100
C1485       C  0.85008732  0.15250763  0.21529862    -0.26700
C1486       C  0.84994268  0.17775655  0.22656634    -0.14700
C1487       C  0.82602023  0.18844835  0.23552084     0.35900
C1488       C  0.80280061  0.17390043  0.23258287    -0.26100
C1489       C  0.80282553  0.14871642  0.22117992    -0.15400
C1490       C  0.82678199  0.13785188  0.21249821     0.37000
N1491       N  0.82747988  0.11193286  0.20127643    -0.89600
H1492       H  0.86850080  0.14414673  0.20870157     0.18100
H1493       H  0.78447870  0.18240369  0.23925231     0.18100
N1494       N  0.82540716  0.21375434  0.24812295    -0.88600
H1495       H  0.82210667  0.09866000  0.21598978     0.35500
H1496       H  0.84660689  0.10700657  0.19567440     0.40600
H1497       H  0.83589321  0.21220972  0.26572792     0.40200
H1498       H  0.80619302  0.21886806  0.25323606     0.35100
C1499       C  0.68734560  0.35676627  0.28802607    -0.26700
C1500       C  0.66376017  0.36737679  0.29711729    -0.14700
C1501       C  0.66369338  0.39274827  0.30865099     0.35900
C1502       C  0.68723736  0.40689294  0.31061952    -0.26100
C1503       C  0.71071045  0.39648274  0.30072961    -0.15400
C1504       C  0.71079223  0.37092174  0.28969141     0.37000
N1505       N  0.73481815  0.35912090  0.28068690    -0.89600
H1506       H  0.68744101  0.33738021  0.27918042     0.18100
H1507       H  0.68710513  0.42625922  0.31948934     0.18100
N1508       N  0.64028268  0.40439331  0.31901762    -0.88600
H1509       H  0.73134663  0.34049801  0.27270717     0.35500
H1510       H  0.74674409  0.35628018  0.29716315     0.40600
H1511       H  0.63196052  0.39139518  0.33256605     0.40200
H1512       H  0.62701373  0.40750461  0.30367333     0.35100
C1513       C  0.73304125  0.20734961  0.13293053    -0.26700
C1514       C  0.70773393  0.21780199  0.12979736    -0.14700
C1515       C  0.68639424  0.20600144  0.14305688     0.35900
C1516       C  0.69107963  0.18458029  0.15994523    -0.26100
C1517       C  0.71655767  0.17481099  0.16355800    -0.15400
C1518       C  0.73763199  0.18602843  0.14949772     0.37000
N1519       N  0.76410575  0.17697305  0.15265155    -0.89600
H1520       H  0.74958983  0.21645240  0.12310567     0.18100
H1521       H  0.67492535  0.17569555  0.17057131     0.18100
N1522       N  0.66035769  0.21652057  0.14033120    -0.88600
H1523       H  0.76513731  0.15737002  0.14663966     0.35500
H1524       H  0.76910262  0.17806485  0.17255725     0.40600
H1525       H  0.66049382  0.23529939  0.14860878     0.40200
H1526       H  0.64693572  0.20544986  0.15123138     0.35100
C1527       C  0.63876900  0.28945643  0.17302581    -0.26700
C1528       C  0.65839156  0.30727971  0.16548453    -0.14700
C1529       C  0.66160823  0.33089546  0.17978020     0.35900
C1530       C  0.64568231  0.33577240  0.20167377    -0.26100
C1531       C  0.62708415  0.31719883  0.20993429    -0.15400
C1532       C  0.62349601  0.29388421  0.19547260     0.37000
N1533       N  0.60481999  0.27452618  0.20411420    -0.89600
H1534       H  0.63578336  0.27166970  0.16174797     0.18100
H1535       H  0.64879515  0.35349459  0.21309596     0.18100
N1536       N  0.68058143  0.35031683  0.17237060    -0.88600
H1537       H  0.60478870  0.25830503  0.19149213     0.35500
H1538       H  0.58613327  0.28294992  0.20293820     0.40600
H1539       H  0.67705970  0.35574551  0.15286972     0.40200
H1540       H  0.69930752  0.34203889  0.17365271     0.35100
C1541       C  0.01012595  0.23821286  0.25403790    -0.26700
C1542       C  0.98675771  0.25305252  0.25425610    -0.14700
C1543       C  0.98863672  0.28060133  0.25679084     0.35900
C1544       C  0.01337405  0.29271960  0.25708530    -0.26100
C1545       C  0.03673374  0.27805657  0.25488944    -0.15400
C1546       C  0.03495374  0.25042238  0.25437761     0.37000
N1547       N  0.05820272  0.23462454  0.25401575    -0.89600
H1548       H  0.00924711  0.21698479  0.25269510     0.18100
H1549       H  0.01408367  0.31397933  0.25802237     0.18100
N1550       N  0.96553347  0.29653570  0.25877546    -1.36600
H1551       H  0.05766640  0.22285582  0.23717792     0.35500
H1552       H  0.05777017  0.22226571  0.27040951     0.40600
H1553       H  0.96565063  0.31000440  0.24327253     0.40200
H1554       H  0.96653989  0.30709320  0.27638047     0.35100
C1555       C  0.14400539  0.31465038  0.35474440    -0.26700
C1556       C  0.17076786  0.30781402  0.35281401    -0.14700
C1557       C  0.18184125  0.30400677  0.32775785     0.35900
C1558       C  0.16598679  0.30655020  0.30537328    -0.26100
C1559       C  0.13921432  0.31301679  0.30741792    -0.15400
C1560       C  0.12811038  0.31720796  0.33231397     0.37000
N1561       N  0.10065527  0.32326823  0.33477524    -0.89600
H1562       H  0.13527340  0.31766936  0.37390212     0.18100
H1563       H  0.17470243  0.30342250  0.28620177     0.18100
N1564       N  0.20889936  0.29687173  0.32488433    -0.88600
H1565       H  0.09557974  0.32575510  0.35451779     0.35500
H1566       H  0.09006176  0.30700670  0.32798515     0.40600
H1567       H  0.21803399  0.31107286  0.31319844     0.40200
H1568       H  0.20975961  0.27891423  0.31492653     0.35100
C1569       C  0.50943829  0.29762805  0.26859174    -0.26700
C1570       C  0.53312284  0.28342719  0.26887770    -0.14700
C1571       C  0.53222317  0.25575107  0.26701130     0.35900
C1572       C  0.50773292  0.24296512  0.26701279    -0.26100
C1573       C  0.48405822  0.25716976  0.26872118    -0.15400
C1574       C  0.48507793  0.28484710  0.26857279     0.37000
N1575       N  0.46150161  0.30018314  0.26891980    -0.89600
H1576       H  0.50966679  0.31890005  0.26950065     0.18100
H1577       H  0.50727481  0.22168872  0.26667668     0.18100
N1578       N  0.55605296  0.24067193  0.26557901    -0.88600
H1579       H  0.46151658  0.31234123  0.25237033     0.35500
H1580       H  0.46190427  0.31216303  0.28561564     0.40600
H1581       H  0.56530910  0.24546023  0.24789055     0.40200
H1582       H  0.55190955  0.22056167  0.26473923     0.35100
C1583       C  0.33088203  0.18714026  0.30706195    -0.26700
C1584       C  0.35508774  0.17400663  0.30683078    -0.14700
C1585       C  0.35554437  0.14649111  0.31182256     0.35900
C1586       C  0.33191054  0.13283047  0.31544600    -0.26100
C1587       C  0.30783523  0.14590897  0.31384229    -0.15400
C1588       C  0.30732699  0.17345369  0.31065140     0.37000
N1589       N  0.28275957  0.18741505  0.31098686    -0.89600
H1590       H  0.33016843  0.20815300  0.30372331     0.18100
H1591       H  0.33231618  0.11175313  0.31844842     0.18100
N1592       N  0.37948642  0.13181264  0.31341944    -0.88600
H1593       H  0.28575181  0.20753145  0.30808689     0.35500
H1594       H  0.27479509  0.18538370  0.32980135     0.40600
H1595       H  0.39178799  0.14070204  0.32728875     0.40200
H1596       H  0.38860591  0.13180578  0.29505291     0.35100
C1597       C  0.23829771  0.18146177  0.38336888    -0.26700
C1598       C  0.22099215  0.17658593  0.36240189    -0.14700
C1599       C  0.19901525  0.19302422  0.35871123     0.35900
C1600       C  0.19532469  0.21450327  0.37566810    -0.26100
C1601       C  0.21349360  0.22015425  0.39563795    -0.15400
C1602       C  0.23497481  0.20313051  0.39992371     0.37000
N1603       N  0.25401257  0.20749483  0.42040838    -0.89600
H1604       H  0.25504871  0.16869148  0.38649823     0.18100
H1605       H  0.17913426  0.22789818  0.37221188     0.18100
N1606       N  0.18047289  0.18781222  0.33802312    -0.88600
H1607       H  0.25359380  0.19112954  0.43280925     0.35500
H1608       H  0.24895515  0.22352822  0.43215043     0.40600
H1609       H  0.18979189  0.19180682  0.32018850     0.40200
H1610       H  0.16461421  0.20080505  0.33915970     0.35100
C1611       C  0.16609105  0.38950899  0.23390936    -0.26700
C1612       C  0.16293654  0.36646033  0.21890198    -0.14700
C1613       C  0.18076649  0.36119190  0.19843410     0.35900
C1614       C  0.20177857  0.37852545  0.19389150    -0.26100
C1615       C  0.20549456  0.40077777  0.20978082    -0.15400
C1616       C  0.18735740  0.40652339  0.22974800     0.37000
N1617       N  0.19123608  0.42909594  0.24631916    -0.89600
H1618       H  0.15244988  0.39380503  0.24965532     0.18100
H1619       H  0.21614108  0.37372243  0.17893709     0.18100
N1620       N  0.17777007  0.33826393  0.18238475    -0.88600
H1621       H  0.17629498  0.43041752  0.26032946     0.35500
H1622       H  0.18969725  0.44580587  0.23448054     0.40600
H1623       H  0.19492329  0.32709058  0.18398955     0.40200
H1624       H  0.17594827  0.34433801  0.16284973     0.35100
C1625       C  0.31219053  0.33806440  0.13160998    -0.26700
C1626       C  0.30270119  0.31422877  0.14157105    -0.14700
C1627       C  0.29089221  0.31384929  0.16672824     0.35900
C1628       C  0.28785387  0.33722688  0.18090400    -0.26100
C1629       C  0.29621296  0.36122242  0.17048977    -0.15400
C1630       C  0.30898802  0.36163581  0.14576809     0.37000
N1631       N  0.31866370  0.38595936  0.13514941    -0.89600
H1632       H  0.32164375  0.33838053  0.11255604     0.18100
H1633       H  0.27819517  0.33665244  0.19985948     0.18100
N1634       N  0.28218947  0.28964910  0.17818795    -0.88600
H1635       H  0.33350339  0.39273883  0.14766696     0.35500
H1636       H  0.32736346  0.38289654  0.11680779     0.40600
H1637       H  0.26212769  0.29131611  0.18221951     0.40200
H1638       H  0.29210643  0.28704967  0.19600017     0.35100
C1639       C  0.34063720  0.22584369  0.19461667    -0.26700
C1640       C  0.35296109  0.22517298  0.17003027    -0.14700
C1641       C  0.38036431  0.22007774  0.16872995     0.35900
C1642       C  0.39489020  0.21713039  0.19211162    -0.26100
C1643       C  0.38261785  0.21935192  0.21655667    -0.15400
C1644       C  0.35521418  0.22309633  0.21777879     0.37000
N1645       N  0.34210894  0.22412010  0.24266398    -0.89600
H1646       H  0.31971344  0.22948330  0.19599123     0.18100
H1647       H  0.41591561  0.21394945  0.19128770     0.18100
N1648       N  0.39340612  0.21816709  0.14376468    -0.88600
H1649       H  0.32796349  0.20921981  0.24306260     0.35500
H1650       H  0.33241259  0.24216758  0.24407235     0.40600
H1651       H  0.38584499  0.20168956  0.13406602     0.40200
H1652       H  0.41350247  0.21478678  0.14631950     0.35100
C1653       C  0.27294353  0.26273948  0.98989457    -0.26700
C1654       C  0.24539373  0.26246189  0.98920808    -0.14700
C1655       C  0.23143980  0.26232834  0.01332620     0.35900
C1656       C  0.24533859  0.26105524  0.03720060    -0.26100
C1657       C  0.27286223  0.26022675  0.03785134    -0.15400
C1658       C  0.28684699  0.26148838  0.01376545     0.37000
N1659       N  0.31507827  0.26041290  0.01335515    -0.89600
H1660       H  0.28379370  0.26297297  0.97160095     0.18100
H1661       H  0.23449273  0.26032431  0.05547998     0.18100
N1662       N  0.20319773  0.26238694  0.01367094    -0.88600
H1663       H  0.32219105  0.26265373  0.99422640     0.35500
H1664       H  0.32061646  0.24156755  0.01937457     0.40600
H1665       H  0.19705261  0.28094937  0.00739085     0.40200
H1666       H  0.19613467  0.26024132  0.03282796     0.35100
C1667       C  0.20857868  0.36606459  0.88139579    -0.26700
C1668       C  0.21888837  0.36468895  0.85583006    -0.14700
C1669       C  0.22790553  0.34044023  0.84593462     0.35900
C1670       C  0.22681394  0.31821618  0.86201078    -0.26100
C1671       C  0.21627610  0.31948229  0.88744641    -0.15400
C1672       C  0.20694180  0.34357741  0.89727806     0.37000
N1673       N  0.19628461  0.34519860  0.92336181    -0.89600
H1674       H  0.20190445  0.38479069  0.88901614     0.18100
H1675       H  0.23372125  0.29959101  0.85434828     0.18100
N1676       N  0.23902052  0.33857415  0.82004069    -0.88600
H1677       H  0.19022317  0.36438325  0.92750373     0.35500
H1678       H  0.21142707  0.34085393  0.93655748     0.40600
H1679       H  0.22369904  0.34085500  0.80654932     0.40200
H1680       H  0.24670524  0.31981017  0.81674806     0.35100
C1681       C  0.30310515  0.37158174  0.80500401    -0.26700
C1682       C  0.30422371  0.39857886  0.81047915    -0.14700
C1683       C  0.32868408  0.41084753  0.81414861     0.35900
C1684       C  0.35173619  0.39593930  0.81099662    -0.26100
C1685       C  0.35062956  0.36901743  0.80449274    -0.15400
C1686       C  0.32595545  0.35666360  0.80226435     0.37000
N1687       N  0.32387760  0.32921692  0.79630113    -0.89600
H1688       H  0.28425946  0.36199779  0.80251390     0.18100
H1689       H  0.37063431  0.40551697  0.81309290     0.18100
N1690       N  0.33002984  0.43841318  0.82014781    -0.88600
H1691       H  0.31324153  0.32718514  0.77882735     0.35500
H1692       H  0.31317761  0.32020550  0.81132714     0.40600
H1693       H  0.32241923  0.44865146  0.80404635     0.40200
H1694       H  0.34957514  0.44439045  0.82223008     0.35100
C1695       C  0.28495132  0.27679113  0.51739784    -0.26700
C1696       C  0.26998466  0.28078517  0.54034048    -0.14700
C1697       C  0.24245114  0.28334498  0.53792874     0.35900
C1698       C  0.23098731  0.28406676  0.51275425    -0.26100
C1699       C  0.24624963  0.28189595  0.48979351    -0.15400
C1700       C  0.27342549  0.27711302  0.49227421     0.37000
N1701       N  0.28932884  0.27283485  0.46934904    -0.89600
H1702       H  0.30600694  0.27418049  0.51889451     0.18100
H1703       H  0.20999448  0.28711036  0.51111746     0.18100
N1704       N  0.22621434  0.28569697  0.56089302    -0.88600
H1705       H  0.28297186  0.25534473  0.46059340     0.35500
H1706       H  0.30897743  0.26994849  0.47457262     0.40600
H1707       H  0.22751395  0.26796461  0.57117914     0.40200
H1708       H  0.20648223  0.28793944  0.55564299     0.35100
C1709       C  0.36756712  0.34347864  0.70653621    -0.26700
C1710       C  0.38740648  0.32545714  0.71310651    -0.14700
C1711       C  0.39106717  0.30282803  0.69743377     0.35900
C1712       C  0.37418556  0.29827027  0.67628730    -0.26100
C1713       C  0.35367177  0.31562578  0.67020153    -0.15400
C1714       C  0.35044127  0.33870548  0.68527156     0.37000
N1715       N  0.33020306  0.35730071  0.67880001    -0.89600
H1716       H  0.36455027  0.36057936  0.71887927     0.18100
H1717       H  0.37694985  0.28063046  0.66465717     0.18100
N1718       N  0.41139208  0.28384767  0.70257584    -0.88600
H1719       H  0.33152129  0.37383464  0.69094336     0.35500
H1720       H  0.31213331  0.34851884  0.68300312     0.40600
H1721       H  0.42377482  0.28986348  0.71778669     0.40200
H1722       H  0.42327590  0.28287193  0.68586827     0.35100
C1723       C  0.13986709  0.22458197  0.85764548    -0.26700
C1724       C  0.16640854  0.23204801  0.85521630    -0.14700
C1725       C  0.17729452  0.23517838  0.82995342     0.35900
C1726       C  0.16134418  0.23112305  0.80782582    -0.26100
C1727       C  0.13467056  0.22433278  0.81025406    -0.15400
C1728       C  0.12397560  0.22061013  0.83549676     0.37000
N1729       N  0.09692578  0.21391448  0.83928019    -0.89600
H1730       H  0.13128270  0.22211153  0.87695749     0.18100
H1731       H  0.16970457  0.23379338  0.78843347     0.18100
N1732       N  0.20412861  0.24342884  0.82678159    -0.88600
H1733       H  0.09337181  0.19572587  0.83041657     0.35500
H1734       H  0.08533988  0.22812326  0.83002722     0.40600
H1735       H  0.20565241  0.26255835  0.83414804     0.40200
H1736       H  0.20908531  0.24445941  0.80688416     0.35100
C1737       C  0.17775404  0.17824545  0.70216676    -0.26700
C1738       C  0.16125883  0.17218241  0.72336885    -0.14700
C1739       C  0.16690490  0.14998511  0.73919290     0.35900
C1740       C  0.18943646  0.13500213  0.73398302    -0.26100
C1741       C  0.20614677  0.14153247  0.71322411    -0.15400
C1742       C  0.20002090  0.16306973  0.69688697     0.37000
N1743       N  0.21672386  0.17062069  0.67555693    -0.89600
H1744       H  0.17346193  0.19502180  0.68978484     0.18100
H1745       H  0.19452256  0.11870832  0.74671611     0.18100
N1746       N  0.15037098  0.14331057  0.76109099    -0.88600
H1747       H  0.21822456  0.15475555  0.66259216     0.35500
H1748       H  0.23540173  0.17474271  0.68305080     0.40600
H1749       H  0.15188434  0.15849494  0.77486891     0.40200
H1750       H  0.15710579  0.12627861  0.77038508     0.35100
C1751       C  0.29156965  0.20218620  0.68161625    -0.26700
C1752       C  0.29650691  0.17817227  0.66909794    -0.14700
C1753       C  0.30584915  0.17814769  0.64290671     0.35900
C1754       C  0.30885486  0.20218229  0.62950123    -0.26100
C1755       C  0.30262112  0.22605513  0.64175566    -0.15400
C1756       C  0.29453466  0.22599314  0.66825457     0.37000
N1757       N  0.28971485  0.25017058  0.68187084    -0.89600
H1758       H  0.28471536  0.20253585  0.70176436     0.18100
H1759       H  0.31559365  0.20226233  0.60932015     0.18100
N1760       N  0.31234368  0.15382926  0.63008508    -0.88600
H1761       H  0.30227497  0.25101800  0.69812222     0.35500
H1762       H  0.27038290  0.24986909  0.68876883     0.40600
H1763       H  0.32818681  0.14555170  0.64021504     0.40200
H1764       H  0.31879412  0.15727086  0.61089917     0.35100
C1765       C  0.73958516  0.28557511  0.98503060    -0.26700
C1766       C  0.76652279  0.27973487  0.98443712    -0.14700
C1767       C  0.77934620  0.27295169  0.00831553     0.35900
C1768       C  0.76518436  0.27334302  0.03200691    -0.26100
C1769       C  0.73848542  0.27989568  0.03255466    -0.15400
C1770       C  0.72551228  0.28603580  0.00873071     0.37000
N1771       N  0.69838162  0.29391752  0.00872404    -0.89600
H1772       H  0.72955775  0.29086782  0.96701667     0.18100
H1773       H  0.77511532  0.26859060  0.05023755     0.18100
N1774       N  0.80678155  0.26624442  0.00872479    -0.88600
H1775       H  0.69175455  0.29739413  0.98958967     0.35500
H1776       H  0.69716709  0.31187716  0.01865482     0.40600
H1777       H  0.80881902  0.24825812  0.99899959     0.40200
H1778       H  0.81332268  0.26317280  0.02796162     0.35100
C1779       C  0.00662599  0.29919841  0.74784380    -0.26700
C1780       C  0.98385862  0.28547831  0.75525969    -0.14700
C1781       C  0.98628271  0.25955011  0.76465785     0.35900
C1782       C  0.01114365  0.24733591  0.76457957    -0.26100
C1783       C  0.03375249  0.26048914  0.75533096    -0.15400
C1784       C  0.03134830  0.28704213  0.74768457     0.37000
N1785       N  0.05370566  0.30163558  0.73883840    -0.89600
H1786       H  0.00512504  0.31926200  0.74087397     0.18100
H1787       H  0.01264025  0.22713723  0.77109622     0.18100
N1788       N  0.96356036  0.24569594  0.77408311    -0.88600
H1789       H  0.05569321  0.31822997  0.75080351     0.35500
H1790       H  0.05000954  0.30800121  0.71965879     0.40600
H1791       H  0.95670955  0.25567898  0.79067568     0.40200
H1792       H  0.96868491  0.22680761  0.78032050     0.35100
C1793       C  0.88256884  0.29243667  0.82256864    -0.26700
C1794       C  0.88477756  0.31752933  0.81149109    -0.14700
C1795       C  0.87008992  0.33851901  0.82212147     0.35900
C1796       C  0.85314037  0.33367954  0.84345312    -0.26100
C1797       C  0.85064028  0.30834241  0.85404492    -0.15400
C1798       C  0.86535602  0.28737642  0.84322635     0.37000
N1799       N  0.86276403  0.26056090  0.85192280    -0.89600
H1800       H  0.89340015  0.27615056  0.81412879     0.18100
H1801       H  0.84193270  0.34967822  0.85191287     0.18100
N1802       N  0.87137851  0.36419639  0.81045245    -0.88600
H1803       H  0.85660802  0.24936923  0.83580467     0.35500
H1804       H  0.84802689  0.25835317  0.86591680     0.40600
H1805       H  0.89027006  0.37155183  0.81376510     0.40200
H1806       H  0.85844769  0.37705098  0.81989163     0.35100
C1807       C  0.80107342  0.19914383  0.89658315    -0.26700
C1808       C  0.79762211  0.22338281  0.88405248    -0.14700
C1809       C  0.79121145  0.22398497  0.85710484     0.35900
C1810       C  0.78743829  0.20053188  0.84333648    -0.26100
C1811       C  0.78989407  0.17616426  0.85586999    -0.15400
C1812       C  0.79720232  0.17541438  0.88278998     0.37000
N1813       N  0.80078884  0.15070980  0.89599832    -0.89600
H1814       H  0.80632610  0.19874583  0.91721697     0.18100
H1815       H  0.78210212  0.20150725  0.82274091     0.18100
N1816       N  0.78893641  0.24851006  0.84346566    -0.88600
H1817       H  0.80573541  0.15368787  0.91572378     0.35500
H1818       H  0.81684705  0.14132502  0.88731241     0.40600
H1819       H  0.77009160  0.24960784  0.83535166     0.40200
H1820       H  0.80250155  0.24856301  0.82806261     0.35100
C1821       C  0.75983724  0.27286902  0.52489154    -0.26700
C1822       C  0.73402653  0.26340100  0.52578396    -0.14700
C1823       C  0.72191544  0.25492938  0.50218173     0.35900
C1824       C  0.73634520  0.25501113  0.47856289    -0.26100
C1825       C  0.76268175  0.26327826  0.47786849    -0.15400
C1826       C  0.77412583  0.27341597  0.50126165     0.37000
N1827       N  0.80036249  0.28391079  0.50119390    -0.89600
H1828       H  0.76898362  0.27982384  0.54283552     0.18100
H1829       H  0.72726217  0.24743107  0.46085247     0.18100
N1830       N  0.69541651  0.24512353  0.50240671    -0.88600
H1831       H  0.80597207  0.28988393  0.52004471     0.35500
H1832       H  0.80016965  0.30083984  0.48956259     0.40600
H1833       H  0.69530901  0.22775169  0.51336952     0.40200
H1834       H  0.68932894  0.24007236  0.48343562     0.35100
C1835       C  0.82682805  0.40412715  0.71274560    -0.26700
C1836       C  0.80307431  0.39050761  0.71094324    -0.14700
C1837       C  0.80315855  0.36271494  0.71143428     0.35900
C1838       C  0.82669985  0.34922000  0.71540806    -0.26100
C1839       C  0.85044660  0.36276855  0.71903198    -0.15400
C1840       C  0.85060321  0.39062541  0.71668932     0.37000
N1841       N  0.87472499  0.40522372  0.71858527    -0.89600
H1842       H  0.82671599  0.42540634  0.71188204     0.18100
H1843       H  0.82618864  0.32795822  0.71641512     0.18100
N1844       N  0.77966033  0.34763827  0.70760041    -0.88600
H1845       H  0.87120052  0.42541495  0.71721392     0.35500
H1846       H  0.88619485  0.40021323  0.70231139     0.40600
H1847       H  0.77105897  0.35331644  0.68982203     0.40200
H1848       H  0.76657803  0.35158212  0.72287644     0.35100
C1849       C  0.69210636  0.35045645  0.66318820    -0.26700
C1850       C  0.71293817  0.36752250  0.65731541    -0.14700
C1851       C  0.72689581  0.36404966  0.63353999     0.35900
C1852       C  0.72096562  0.34275868  0.61709764    -0.26100
C1853       C  0.70091808  0.32515247  0.62353826    -0.15400
C1854       C  0.68587629  0.32931847  0.64644069     0.37000
N1855       N  0.66515151  0.31136629  0.65321081    -0.89600
H1856       H  0.68100116  0.35331807  0.68110448     0.18100
H1857       H  0.73286022  0.33929755  0.59978917     0.18100
N1858       N  0.74797281  0.38134531  0.62655426    -0.88600
H1859       H  0.65554732  0.31759806  0.67025351     0.35500
H1860       H  0.67383401  0.29334723  0.65777382     0.40600
H1861       H  0.74362213  0.38960331  0.60825671     0.40200
H1862       H  0.76508893  0.37017463  0.62460903     0.35100
C1863       C  0.48558677  0.26868942  0.76110114    -0.26700
C1864       C  0.48579357  0.29467535  0.77010782    -0.14700
C1865       C  0.51011773  0.30612550  0.77744944     0.35900
C1866       C  0.53325190  0.29121835  0.77616075    -0.26100
C1867       C  0.53299136  0.26476023  0.76807430    -0.15400
C1868       C  0.50851540  0.25362812  0.76014963     0.37000
N1869       N  0.50578350  0.22690174  0.75171767    -0.89600
H1870       H  0.46715862  0.25960819  0.75542238     0.18100
H1871       H  0.55144679  0.30024435  0.78257301     0.18100
N1872       N  0.51187881  0.33230475  0.78768641    -0.88600
H1873       H  0.51069290  0.21437883  0.76720974     0.35500
H1874       H  0.51810819  0.22363043  0.73563045     0.40600
H1875       H  0.49957955  0.33385244  0.80405280     0.40200
H1876       H  0.50565278  0.34547785  0.77323809     0.35100
C1877       C  0.61700392  0.23027417  0.68684004    -0.26700
C1878       C  0.63127178  0.22763427  0.71016205    -0.14700
C1879       C  0.65901978  0.22769901  0.70925144     0.35900
C1880       C  0.67188104  0.23163789  0.68533992    -0.26100
C1881       C  0.65775445  0.23553287  0.66194459    -0.15400
C1882       C  0.62985278  0.23411268  0.66267385     0.37000
N1883       N  0.61454661  0.23662276  0.63904499    -0.89600
H1884       H  0.59573506  0.22979524  0.68756856     0.18100
H1885       H  0.69315735  0.23204671  0.68523686     0.18100
N1886       N  0.67467990  0.22321533  0.73224016    -0.88600
H1887       H  0.59445534  0.23608449  0.64324028     0.35500
H1888       H  0.61843142  0.22013731  0.62741106     0.40600
H1889       H  0.66900893  0.20532442  0.74059158     0.40200
H1890       H  0.67122357  0.23825992  0.74575994     0.35100
C1891       C  0.69291970  0.15653768  0.82671843    -0.26700
C1892       C  0.70043391  0.13811047  0.80763207    -0.14700
C1893       C  0.68529252  0.13547830  0.78451098     0.35900
C1894       C  0.66367839  0.15188459  0.78048399    -0.26100
C1895       C  0.65721853  0.17157326  0.79868037    -0.15400
C1896       C  0.67146887  0.17346820  0.82239933     0.37000
N1897       N  0.66425752  0.19265775  0.84182029    -0.89600
H1898       H  0.70470227  0.15872227  0.84434001     0.18100
H1899       H  0.65251059  0.14996893  0.76243160     0.18100
N1900       N  0.69156891  0.11646438  0.76470476    -0.88600
H1901       H  0.67678882  0.19153636  0.85807428     0.35500
H1902       H  0.64546156  0.18786380  0.84855440     0.40600
H1903       H  0.69222676  0.09791764  0.77350247     0.40200
H1904       H  0.71007791  0.12070870  0.75697521     0.35100
C1905       C  0.25074485  0.99907897  0.27466497    -0.26700
C1906       C  0.24606259  0.99867149  0.24754212    -0.14700
C1907       C  0.24321867  0.02294177  0.23410022     0.35900
C1908       C  0.24408554  0.04671997  0.24833831    -0.26100
C1909       C  0.24802083  0.04704632  0.27566282    -0.15400
C1910       C  0.25186206  0.02274987  0.28874656     0.37000
N1911       N  0.25620721  0.02171853  0.31654239    -0.89600
H1912       H  0.25313309  0.98076987  0.28526310     0.18100
H1913       H  0.24111940  0.06508857  0.23801818     0.18100
N1914       N  0.23824827  0.02348987  0.20628773    -0.88600
H1915       H  0.27409772  0.01222012  0.31991704     0.35500
H1916       H  0.24128046  0.01039284  0.32495085     0.40600
H1917       H  0.25554694  0.01772367  0.19687714     0.40200
H1918       H  0.23448420  0.04266327  0.19995537     0.35100
C1919       C  0.52532772  0.77910955  0.26416617    -0.26700
C1920       C  0.52889401  0.75543620  0.25056921    -0.14700
C1921       C  0.50720910  0.74388553  0.23756917     0.35900
C1922       C  0.48250500  0.75625184  0.23835661    -0.26100
C1923       C  0.47885871  0.78028347  0.25145611    -0.15400
C1924       C  0.50051256  0.79148232  0.26509757     0.37000
N1925       N  0.49733116  0.81536891  0.27983681    -0.89600
H1926       H  0.54193121  0.78786708  0.27424542     0.18100
H1927       H  0.46627552  0.74757900  0.22762984     0.18100
N1928       N  0.51064156  0.72018949  0.22254826    -0.88600
H1929       H  0.51512056  0.82107964  0.28841059     0.35500
H1930       H  0.48443156  0.81137748  0.29529586     0.40600
H1931       H  0.52318710  0.72462018  0.20692177     0.40200
H1932       H  0.49285185  0.71417473  0.21419221     0.35100
C1933       C  0.29889375  0.86934465  0.22649537    -0.26700
C1934       C  0.30136837  0.89488387  0.21623688    -0.14700
C1935       C  0.32634817  0.90363467  0.20802301     0.35900
C1936       C  0.34824870  0.88714723  0.21130636    -0.26100
C1937       C  0.34570242  0.86170845  0.22200011    -0.15400
C1938       C  0.32048972  0.85272825  0.22925338     0.37000
N1939       N  0.31623671  0.82733640  0.24061640    -0.89600
H1940       H  0.27984218  0.86214875  0.23267155     0.18100
H1941       H  0.36745628  0.89435133  0.20563443     0.18100
N1942       N  0.33023850  0.92932741  0.19726537    -0.88600
H1943       H  0.32802685  0.82557028  0.25734582     0.35500
H1944       H  0.32154704  0.81296524  0.22695937     0.40600
H1945       H  0.32328585  0.94316638  0.21075323     0.40200
H1946       H  0.31925558  0.93086765  0.17997777     0.35100
C1947       C  0.36994685  0.82274732  0.35578066    -0.26700
C1948       C  0.34508405  0.81077637  0.35437594    -0.14700
C1949       C  0.33649738  0.79991164  0.33043282     0.35900
C1950       C  0.35276239  0.80154170  0.30831142    -0.26100
C1951       C  0.37757319  0.81377080  0.30940862    -0.15400
C1952       C  0.38610978  0.82465802  0.33353327     0.37000
N1953       N  0.41124294  0.83700058  0.33629280    -0.89600
H1954       H  0.37683941  0.83067644  0.37432130     0.18100
H1955       H  0.34589356  0.79312616  0.28999033     0.18100
N1956       N  0.31168852  0.78644145  0.32887994    -0.88600
H1957       H  0.41180663  0.85356717  0.32420217     0.35500
H1958       H  0.42569929  0.82376019  0.33019644     0.40600
H1959       H  0.31300173  0.76972709  0.34073415     0.40200
H1960       H  0.30818789  0.77972678  0.30977398     0.35100
C1961       C  0.22363704  0.81689077  0.16463339    -0.26700
C1962       C  0.21167879  0.81798093  0.13970401    -0.14700
C1963       C  0.20081538  0.84184262  0.13102818     0.35900
C1964       C  0.20265801  0.86424199  0.14708399    -0.26100
C1965       C  0.21481953  0.86310307  0.17190183    -0.15400
C1966       C  0.22523064  0.83908829  0.18085361     0.37000
N1967       N  0.23862030  0.83758339  0.20570241    -0.89600
H1968       H  0.23171338  0.79849531  0.17167225     0.18100
H1969       H  0.19490395  0.88274194  0.13994735     0.18100
N1970       N  0.18871446  0.84365967  0.10568904    -0.88600
H1971       H  0.24690156  0.81898011  0.20838314     0.35500
H1972       H  0.22453870  0.83975536  0.22046002     0.40600
H1973       H  0.19875399  0.85791896  0.09484834     0.40200
H1974       H  0.16940635  0.85012495  0.10829355     0.35100
C1975       C  0.27321126  0.54621855  0.24341742    -0.26700
C1976       C  0.26529718  0.54801092  0.26980322    -0.14700
C1977       C  0.25644239  0.52464845  0.28243383     0.35900
C1978       C  0.25716067  0.50052739  0.26906837    -0.26100
C1979       C  0.26614351  0.49870526  0.24311221    -0.15400
C1980       C  0.27370633  0.52216377  0.23003767     0.37000
N1981       N  0.28317152  0.52223930  0.20353885    -0.89600
H1982       H  0.27990343  0.56359379  0.23310854     0.18100
H1983       H  0.25090882  0.48292098  0.27927729     0.18100
N1984       N  0.24673416  0.52444263  0.30882596    -0.88600
H1985       H  0.26815841  0.51586967  0.19104798     0.35500
H1986       H  0.29920855  0.50949337  0.20216020     0.40600
H1987       H  0.23116891  0.53775559  0.31027333     0.40200
H1988       H  0.26184561  0.52981344  0.32165333     0.35100
C1989       C  0.30514215  0.68211752  0.37217756    -0.26700
C1990       C  0.29006442  0.68312764  0.34908153    -0.14700
C1991       C  0.27625512  0.70621105  0.34279281     0.35900
C1992       C  0.27763392  0.72777742  0.35991823    -0.26100
C1993       C  0.29290528  0.72703192  0.38303336    -0.15400
C1994       C  0.30689130  0.70386797  0.38916410     0.37000
N1995       N  0.32251533  0.70231206  0.41265125    -0.89600
H1996       H  0.31539395  0.66411668  0.37709153     0.18100
H1997       H  0.26702582  0.74550076  0.35481183     0.18100
N1998       N  0.25996785  0.70729645  0.31970425    -0.88600
H1999       H  0.33182088  0.68404944  0.41395945     0.35500
H2000       H  0.30973459  0.70352442  0.42866521     0.40600
H2001       H  0.27235412  0.70685363  0.30335557     0.40200
H2002       H  0.24989231  0.72516893  0.31879072     0.35100
C2003       C  0.00776990  0.75339159  0.26449334    -0.26700
C2004       C  0.03121068  0.76683219  0.27082192    -0.14700
C2005       C  0.02991673  0.79411098  0.27566531     0.35900
C2006       C  0.00555001  0.80692662  0.27543002    -0.26100
C2007       C  0.98202808  0.79322493  0.27059567    -0.15400
C2008       C  0.98326703  0.76627094  0.26427613     0.37000
N2009       N  0.95972232  0.75202151  0.25786766    -0.89600
H2010       H  0.00837053  0.73253334  0.26030823     0.18100
H2011       H  0.00504799  0.82768407  0.28017586     0.18100
N2012       N  0.05313039  0.80893890  0.28149468    -0.88600
H2013       H  0.96400748  0.73233735  0.25384556     0.35500
H2014       H  0.95216832  0.76001979  0.24051355     0.40600
H2015       H  0.05080453  0.81757262  0.29999408     0.40200
H2016       H  0.05475485  0.82398865  0.26761870     0.35100
C2017       C  0.15689724  0.73420469  0.21584999    -0.26700
C2018       C  0.13009826  0.72812262  0.21344471    -0.14700
C2019       C  0.11934370  0.72318741  0.18842871     0.35900
C2020       C  0.13565493  0.72542920  0.16619026    -0.26100
C2021       C  0.16247108  0.73194812  0.16871902    -0.15400
C2022       C  0.17307771  0.73619490  0.19387934     0.37000
N2023       N  0.20001157  0.74369432  0.19723196    -0.89600
H2024       H  0.16541277  0.73774958  0.23507281     0.18100
H2025       H  0.12737444  0.72229535  0.14681710     0.18100
N2026       N  0.09190535  0.71717012  0.18557214    -0.88600
H2027       H  0.20902957  0.72990039  0.20948931     0.35500
H2028       H  0.20052246  0.76193335  0.20669912     0.40600
H2029       H  0.08871057  0.69868134  0.19390450     0.40200
H2030       H  0.08694878  0.71543372  0.16570458     0.35100
C2031       C  0.16551517  0.65950702  0.27897863    -0.26700
C2032       C  0.16012478  0.67878570  0.29803439    -0.14700
C2033       C  0.17674362  0.68096328  0.32018716     0.35900
C2034       C  0.19850502  0.66428407  0.32252808    -0.26100
C2035       C  0.20442077  0.64581297  0.30290981    -0.15400
C2036       C  0.18770202  0.64321870  0.28103251     0.37000
N2037       N  0.19354244  0.62429433  0.26089494    -0.89600
H2038       H  0.15272369  0.65763562  0.26203706     0.18100
H2039       H  0.21157637  0.66657778  0.33921065     0.18100
N2040       N  0.17186486  0.69961510  0.34069291    -0.88600
H2041       H  0.17933852  0.62491533  0.24605029     0.35500
H2042       H  0.19234873  0.60562634  0.26937953     0.40600
H2043       H  0.15288445  0.69654107  0.34787563     0.40200
H2044       H  0.17297894  0.71853612  0.33281777     0.35100
C2045       C  0.26359293  0.99678402  0.74873287    -0.26700
C2046       C  0.26232058  0.99713736  0.77632932    -0.14700
C2047       C  0.25995715  0.02184401  0.78918331     0.35900
C2048       C  0.26023329  0.04502825  0.77444334    -0.26100
C2049       C  0.26310647  0.04461999  0.74703507    -0.15400
C2050       C  0.26420213  0.02009785  0.73407565     0.37000
N2051       N  0.26723730  0.01861673  0.70613799    -0.89600
H2052       H  0.26516394  0.97827373  0.73832061     0.18100
H2053       H  0.25907978  0.06363941  0.78474333     0.18100
N2054       N  0.25825001  0.02439874  0.81715594    -0.88600
H2055       H  0.25155761  0.00771135  0.69853004     0.35500
H2056       H  0.28460223  0.00843158  0.70211248     0.40600
H2057       H  0.27519310  0.01654374  0.82569046     0.40200
H2058       H  0.24165808  0.01427021  0.82374764     0.35100
C2059       C  0.18897644  0.90321849  0.78847703    -0.26700
C2060       C  0.20436984  0.89976969  0.81097664    -0.14700
C2061       C  0.19788927  0.87999435  0.82928198     0.35900
C2062       C  0.17597200  0.86383587  0.82452781    -0.26100
C2063       C  0.16068899  0.86722117  0.80185837    -0.15400
C2064       C  0.16716049  0.88721026  0.78381562     0.37000
N2065       N  0.15226258  0.89056165  0.76014134    -0.89600
H2066       H  0.19443760  0.91786788  0.77402034     0.18100
H2067       H  0.17087981  0.84852695  0.83840681     0.18100
N2068       N  0.21416754  0.87575072  0.85199324    -0.88600
H2069       H  0.16493175  0.88814040  0.74417428     0.35500
H2070       H  0.14513450  0.90981955  0.75975738     0.40600
H2071       H  0.23250333  0.86933811  0.84539562     0.40200
H2072       H  0.20655965  0.86057212  0.86354587     0.35100
C2073       C  0.28687415  0.76590179  0.01298054    -0.26700
C2074       C  0.27225167  0.76491263  0.98947228    -0.14700
C2075       C  0.24455860  0.76513609  0.99089245     0.35900
C2076       C  0.23228383  0.76416666  0.01553369    -0.26100
C2077       C  0.24689543  0.76326801  0.03900014    -0.15400
C2078       C  0.27448388  0.76508396  0.03761874     0.37000
N2079       N  0.29005445  0.76589335  0.06106547    -0.89600
H2080       H  0.30814319  0.76623087  0.01235410     0.18100
H2081       H  0.21104381  0.76325697  0.01625918     0.18100
N2082       N  0.22890901  0.76587223  0.96736527    -0.88600
H2083       H  0.30104221  0.78325843  0.06086174     0.35500
H2084       H  0.30315501  0.75008758  0.06060007     0.40600
H2085       H  0.23243806  0.78391458  0.95820913     0.40200
H2086       H  0.20888082  0.76542302  0.97185988     0.35100
C2087       C  0.29263024  0.81728646  0.86191483    -0.26700
C2088       C  0.30267109  0.81940118  0.88757063    -0.14700
C2089       C  0.30877079  0.84436787  0.89782714     0.35900
C2090       C  0.30417003  0.86677821  0.88224949    -0.26100
C2091       C  0.29381291  0.86454918  0.85665925    -0.15400
C2092       C  0.28816741  0.83949071  0.84645449     0.37000
N2093       N  0.27697312  0.83648095  0.82077798    -0.89600
H2094       H  0.28797307  0.79814439  0.85377389     0.18100
H2095       H  0.30850905  0.88607019  0.89017005     0.18100
N2096       N  0.31890589  0.84693240  0.92406520    -0.88600
H2097       H  0.25892925  0.82684730  0.82269574     0.35500
H2098       H  0.28942447  0.82445250  0.80974099     0.40600
H2099       H  0.30433490  0.84046264  0.93699335     0.40200
H2100       H  0.32239008  0.86668706  0.92854850     0.35100
C2101       C  0.37823981  0.72261088  0.85931184    -0.26700
C2102       C  0.35225065  0.73189656  0.85737657    -0.14700
C2103       C  0.34186310  0.73807891  0.83254153     0.35900
C2104       C  0.35780418  0.73606589  0.81035529    -0.26100
C2105       C  0.38398178  0.72756924  0.81223686    -0.15400
C2106       C  0.39416890  0.72003767  0.83683259     0.37000
N2107       N  0.42062133  0.71044930  0.83898102    -0.89600
H2108       H  0.38619742  0.71766474  0.87843324     0.18100
H2109       H  0.34957768  0.74130553  0.79141409     0.18100
N2110       N  0.31546355  0.74744403  0.82981510    -0.88600
H2111       H  0.42497976  0.70565045  0.85847482     0.35500
H2112       H  0.43324464  0.72578459  0.83374756     0.40600
H2113       H  0.30548342  0.73482325  0.81701111     0.40200
H2114       H  0.31610442  0.76606726  0.82116954     0.35100
C2115       C  0.25388798  0.52455821  0.73737598    -0.26700
C2116       C  0.24921666  0.54790668  0.75153142    -0.14700
C2117       C  0.24490228  0.54624089  0.77890227     0.35900
C2118       C  0.24385540  0.52142011  0.79098676    -0.26100
C2119       C  0.24702976  0.49806282  0.77650974    -0.15400
C2120       C  0.25266239  0.49987417  0.74937398     0.37000
N2121       N  0.25730450  0.47717325  0.73337177    -0.89600
H2122       H  0.25752509  0.52526114  0.71642205     0.18100
H2123       H  0.23974766  0.52035833  0.81183755     0.18100
N2124       N  0.24112978  0.56959439  0.79434023    -0.88600
H2125       H  0.24013013  0.46597334  0.73238362     0.35500
H2126       H  0.27229968  0.46604397  0.74191942     0.40600
H2127       H  0.25877935  0.58011031  0.79404684     0.40200
H2128       H  0.23753886  0.56485283  0.81399204     0.35100
C2129       C  0.30354583  0.67439079  0.73091048    -0.26700
C2130       C  0.30517258  0.64932439  0.71932773    -0.14700
C2131       C  0.32990162  0.63996560  0.71105005     0.35900
C2132       C  0.35234022  0.65586573  0.71466546    -0.26100
C2133       C  0.35054359  0.68103230  0.72605107    -0.15400
C2134       C  0.32578893  0.69039286  0.73415252     0.37000
N2135       N  0.32337823  0.71564145  0.74662338    -0.89600
H2136       H  0.28462620  0.68181687  0.73718436     0.18100
H2137       H  0.37138738  0.64855341  0.70863743     0.18100
N2138       N  0.33227082  0.61429754  0.69950096    -0.88600
H2139       H  0.30422458  0.71857446  0.75339601     0.35500
H2140       H  0.32656308  0.72995612  0.73226576     0.40600
H2141       H  0.32724963  0.60053096  0.71388691     0.40200
H2142       H  0.35177276  0.61050672  0.69433571     0.35100
C2143       C  0.27602143  0.77762737  0.50867716    -0.26700
C2144       C  0.26139273  0.78173212  0.48550795    -0.14700
C2145       C  0.23379056  0.78322139  0.48738847     0.35900
C2146       C  0.22164305  0.78193000  0.51211786    -0.26100
C2147       C  0.23639826  0.77930343  0.53539411    -0.15400
C2148       C  0.26390254  0.77633690  0.53348853     0.37000
N2149       N  0.27952885  0.77234413  0.55669224    -0.89600
H2150       H  0.29720889  0.77611850  0.50761511     0.18100
H2151       H  0.20048610  0.78400997  0.51306492     0.18100
N2152       N  0.21790851  0.78633565  0.46435480    -0.88600
H2153       H  0.29944660  0.77093535  0.55192079     0.35500
H2154       H  0.27413886  0.75421068  0.56469309     0.40600
H2155       H  0.20697048  0.80359505  0.46641549     0.40200
H2156       H  0.20477827  0.77055195  0.46343176     0.35100
C2157       C  0.22300665  0.70231800  0.62417278    -0.26700
C2158       C  0.20205355  0.71850591  0.63142147    -0.14700
C2159       C  0.18704629  0.71220658  0.65381583     0.35900
C2160       C  0.19385086  0.69004859  0.66894520    -0.26100
C2161       C  0.21538354  0.67415984  0.66213372    -0.15400
C2162       C  0.22965658  0.68000594  0.63896615     0.37000
N2163       N  0.25175999  0.66422657  0.63123288    -0.89600
H2164       H  0.23483708  0.70769472  0.60731827     0.18100
H2165       H  0.18263098  0.68547707  0.68643021     0.18100
N2166       N  0.16571424  0.72893190  0.66172430    -0.88600
H2167       H  0.26164398  0.67285274  0.61544209     0.35500
H2168       H  0.24437951  0.64641159  0.62412840     0.40600
H2169       H  0.17366102  0.74709052  0.66716686     0.40200
H2170       H  0.15649819  0.72139138  0.67844610     0.35100
C2171       C  0.17050668  0.81053088  0.69277076    -0.26700
C2172       C  0.15681478  0.80886470  0.66891649    -0.14700
C2173       C  0.12901270  0.81150794  0.66897930     0.35900
C2174       C  0.11572182  0.81442676  0.69301674    -0.26100
C2175       C  0.12956655  0.81475004  0.71673728    -0.15400
C2176       C  0.15728808  0.81336301  0.71650564     0.37000
N2177       N  0.17265480  0.81532251  0.74005159    -0.89600
H2178       H  0.19172965  0.80901200  0.69318344     0.18100
H2179       H  0.09449316  0.81597330  0.69330895     0.18100
N2180       N  0.11431468  0.81113680  0.64483843    -0.88600
H2181       H  0.16836146  0.79940668  0.75224932     0.35500
H2182       H  0.16771919  0.83276626  0.74969583     0.40600
H2183       H  0.11946159  0.82797555  0.63426570     0.40200
H2184       H  0.09416610  0.81254194  0.64853086     0.35100
C2185       C  0.76392247  0.99525959  0.77214648    -0.26700
C2186       C  0.76606215  0.99573651  0.74468217    -0.14700
C2187       C  0.76562038  0.02035773  0.73163873     0.35900
C2188       C  0.76365034  0.04361069  0.74643407    -0.26100
C2189       C  0.76289945  0.04319228  0.77401805    -0.15400
C2190       C  0.76257230  0.01840427  0.78689007     0.37000
N2191       N  0.76189183  0.01578280  0.81489975    -0.89600
H2192       H  0.76412312  0.97665899  0.78249940     0.18100
H2193       H  0.76382359  0.06229977  0.73626090     0.18100
N2194       N  0.76826598  0.02194713  0.70355056    -0.88600
H2195       H  0.74474357  0.02455667  0.82200523     0.35500
H2196       H  0.77840037  0.02496904  0.82294797     0.40600
H2197       H  0.78742405  0.01624024  0.69886629     0.40200
H2198       H  0.76635240  0.04135864  0.69710926     0.35100
C2199       C  0.74678156  0.75750342  0.53503458    -0.26700
C2200       C  0.77411729  0.76116026  0.53562653    -0.14700
C2201       C  0.78752567  0.76531514  0.51152608     0.35900
C2202       C  0.77343959  0.76460108  0.48768121    -0.26100
C2203       C  0.74625867  0.76019426  0.48719431    -0.15400
C2204       C  0.73278527  0.75663901  0.51126695     0.37000
N2205       N  0.70508761  0.75098544  0.51157567    -0.89600
H2206       H  0.73625352  0.75421179  0.55321306     0.18100
H2207       H  0.78380108  0.76739254  0.46931531     0.18100
N2208       N  0.81543588  0.76960200  0.51109827    -0.88600
H2209       H  0.69815041  0.74941682  0.53083561     0.35500
H2210       H  0.70240979  0.73252654  0.50292320     0.40600
H2211       H  0.81899136  0.78788595  0.51978982     0.40200
H2212       H  0.82229439  0.77096794  0.49179404     0.35100
C2213       C  0.81076634  0.84091445  0.62366742    -0.26700
C2214       C  0.80825187  0.81697712  0.63689967    -0.14700
C2215       C  0.80494181  0.81684965  0.66447592     0.35900
C2216       C  0.80288138  0.84049286  0.67803188    -0.26100
C2217       C  0.80381337  0.86459361  0.66478809    -0.15400
C2218       C  0.80859611  0.86486092  0.63732563     0.37000
N2219       N  0.81107976  0.88928911  0.62337714    -0.89600
H2220       H  0.81383431  0.84090154  0.60260285     0.18100
H2221       H  0.79962084  0.83986065  0.69905867     0.18100
N2222       N  0.80412365  0.79299081  0.67938839    -0.88600
H2223       H  0.81411225  0.88592763  0.60334130     0.35500
H2224       H  0.82795898  0.89870162  0.63038389     0.40600
H2225       H  0.82111166  0.78220382  0.67536199     0.40200
H2226       H  0.78767808  0.78205758  0.67379603     0.35100
C2227       C  0.77613388  0.77569680  0.98927929    -0.26700
C2228       C  0.74902834  0.78054733  0.98833155    -0.14700
C2229       C  0.73525326  0.78416280  0.01222871     0.35900
C2230       C  0.74886030  0.78304080  0.03624445    -0.26100
C2231       C  0.77615260  0.77920596  0.03728510    -0.15400
C2232       C  0.78984573  0.77479675  0.01336782     0.37000
N2233       N  0.81770702  0.77020383  0.01336595    -0.89600
H2234       H  0.78675893  0.77282739  0.97107467     0.18100
H2235       H  0.73811283  0.78651652  0.05426053     0.18100
N2236       N  0.70768078  0.79032348  0.01211033    -0.88600
H2237       H  0.82482163  0.76858646  0.99417028     0.35500
H2238       H  0.82091914  0.75197684  0.02226381     0.40600
H2239       H  0.70554672  0.80887491  0.00355724     0.40200
H2240       H  0.70046071  0.79193396  0.03126583     0.35100
C2241       C  0.51304416  0.80004974  0.75490413    -0.26700
C2242       C  0.53611019  0.78470446  0.75468027    -0.14700
C2243       C  0.53338087  0.75703095  0.75643126     0.35900
C2244       C  0.50829666  0.74560857  0.75662584    -0.26100
C2245       C  0.48526541  0.76083534  0.75490692    -0.15400
C2246       C  0.48779097  0.78852916  0.75509927     0.37000
N2247       N  0.46482700  0.80494465  0.75517374    -0.89600
H2248       H  0.51461478  0.82125976  0.75405146     0.18100
H2249       H  0.50697327  0.72436619  0.75711579     0.18100
N2250       N  0.55556095  0.73980239  0.75800797    -0.88600
H2251       H  0.47008007  0.82480784  0.75490089     0.35500
H2252       H  0.45506921  0.80176825  0.77295525     0.40600
H2253       H  0.56750681  0.74580938  0.77362556     0.40200
H2254       H  0.56609673  0.74075883  0.74044825     0.35100
C2255       C  0.62831164  0.82025007  0.83176583    -0.26700
C2256       C  0.64045409  0.81583253  0.80748763    -0.14700
C2257       C  0.66753885  0.80945001  0.80686359     0.35900
C2258       C  0.68152615  0.80668861  0.83026277    -0.26100
C2259       C  0.66920205  0.80973201  0.85462565    -0.15400
C2260       C  0.64235896  0.81710790  0.85543571     0.37000
N2261       N  0.62947402  0.82139359  0.88018519    -0.89600
H2262       H  0.60770849  0.82555165  0.83226645     0.18100
H2263       H  0.70210014  0.80130772  0.82932332     0.18100
N2264       N  0.68163567  0.80629421  0.78273061    -0.88600
H2265       H  0.60977774  0.82644515  0.87729797     0.35500
H2266       H  0.63844949  0.83758012  0.88914309     0.40600
H2267       H  0.67889617  0.82317298  0.77137225     0.40200
H2268       H  0.67426742  0.79000729  0.77263459     0.35100
C2269       C  0.66581447  0.89011122  0.70939496    -0.26700
C2270       C  0.66843834  0.86306710  0.71485120    -0.14700
C2271       C  0.69359796  0.85163176  0.71360661     0.35900
C2272       C  0.71555060  0.86759041  0.70918628    -0.26100
C2273       C  0.71310950  0.89484960  0.70559716    -0.15400
C2274       C  0.68777293  0.90614619  0.70457554     0.37000
N2275       N  0.68348148  0.93373444  0.70029323    -0.89600
H2276       H  0.64653520  0.89911467  0.70959005     0.18100
H2277       H  0.73489527  0.85866613  0.70946727     0.18100
N2278       N  0.69722882  0.82405363  0.71787697    -0.88600
H2279       H  0.67312067  0.93569245  0.68265180     0.35500
H2280       H  0.70104005  0.94400541  0.69801049     0.40600
H2281       H  0.71013500  0.82166274  0.73369018     0.40200
H2282       H  0.70621652  0.81616103  0.70118907     0.35100
C2283       C  0.00544745  0.74153026  0.77146454    -0.26700
C2284       C  0.98169828  0.75556967  0.77393859    -0.14700
C2285       C  0.98270666  0.78318093  0.77659071     0.35900
C2286       C  0.00726866  0.79580577  0.77744092    -0.26100
C2287       C  0.03093165  0.78156866  0.77579866    -0.15400
C2288       C  0.02985688  0.75416849  0.77256570     0.37000
N2289       N  0.05344029  0.73899134  0.77043099    -0.89600
H2290       H  0.00528842  0.72033778  0.76944802     0.18100
H2291       H  0.00787598  0.81692764  0.78005053     0.18100
N2292       N  0.95898813  0.79832248  0.77883829    -0.88600
H2293       H  0.05294864  0.72890648  0.75253179     0.35500
H2294       H  0.05350556  0.72508987  0.78554687     0.40600
H2295       H  0.94897295  0.79678841  0.76095449     0.40200
H2296       H  0.96328097  0.81825115  0.78144672     0.35100
C2297       C  0.85639274  0.72076003  0.71600477    -0.26700
C2298       C  0.88373026  0.71771904  0.71439611    -0.14700
C2299       C  0.89599658  0.71804877  0.68967072     0.35900
C2300       C  0.88061479  0.72251464  0.66704701    -0.26100
C2301       C  0.85323536  0.72655774  0.66875652    -0.15400
C2302       C  0.84107136  0.72498198  0.69358346     0.37000
N2303       N  0.81328676  0.72839337  0.69639155    -0.89600
H2304       H  0.84681293  0.72025788  0.73501555     0.18100
H2305       H  0.89015829  0.72330978  0.64805867     0.18100
N2306       N  0.92394843  0.71473171  0.68769690    -0.88600
H2307       H  0.81002515  0.74414789  0.70917076     0.35500
H2308       H  0.80563207  0.71145937  0.70513527     0.40600
H2309       H  0.93282154  0.73071525  0.69710547     0.40200
H2310       H  0.92986433  0.71544585  0.66804724     0.35100
C2311       C  0.74567445  0.51528830  0.79269474    -0.26700
C2312       C  0.74833549  0.53897890  0.77857598    -0.14700
C2313       C  0.75244385  0.53761767  0.75124989     0.35900
C2314       C  0.75254214  0.51317675  0.73853543    -0.26100
C2315       C  0.74845421  0.48948435  0.75229124    -0.15400
C2316       C  0.74571776  0.49060914  0.77991812     0.37000
N2317       N  0.74255486  0.46689954  0.79490276    -0.89600
H2318       H  0.74279387  0.51600261  0.81376274     0.18100
H2319       H  0.75502928  0.51302455  0.71740342     0.18100
N2320       N  0.75643149  0.56100882  0.73612486    -0.88600
H2321       H  0.74028992  0.47121031  0.81486338     0.35500
H2322       H  0.75997934  0.45617957  0.79322574     0.40600
H2323       H  0.74181611  0.56187833  0.72169765     0.40200
H2324       H  0.77459805  0.55950899  0.72669126     0.35100
C2325       C  0.82676130  0.62853807  0.79008770    -0.26700
C2326       C  0.81203472  0.63282174  0.81294269    -0.14700
C2327       C  0.82013566  0.65251059  0.83098663     0.35900
C2328       C  0.84221717  0.66782921  0.82514446    -0.26100
C2329       C  0.85637726  0.66406743  0.80189708    -0.15400
C2330       C  0.84905851  0.64371863  0.78446728     0.37000
N2331       N  0.86320280  0.63961736  0.76036204    -0.89600
H2332       H  0.82017140  0.61391466  0.77603917     0.18100
H2333       H  0.84808608  0.68318980  0.83871345     0.18100
N2334       N  0.80599040  0.65850730  0.85469802    -0.88600
H2335       H  0.85376605  0.62552907  0.74872799     0.35500
H2336       H  0.88145948  0.63159260  0.76521348     0.40600
H2337       H  0.78987219  0.64624254  0.85749874     0.40200
H2338       H  0.79861633  0.67759156  0.85293912     0.35100
C2339       C  0.71528578  0.67403608  0.88271177    -0.26700
C2340       C  0.72540670  0.67522834  0.85699727    -0.14700
C2341       C  0.73209887  0.69990134  0.84628871     0.35900
C2342       C  0.72858251  0.72265191  0.86147581    -0.26100
C2343       C  0.71860166  0.72150606  0.88720769    -0.15400
C2344       C  0.71157557  0.69684109  0.89776266     0.37000
N2345       N  0.70138303  0.69422174  0.92383349    -0.89600
H2346       H  0.71007697  0.65520940  0.89117401     0.18100
H2347       H  0.73376738  0.74153408  0.85310868     0.18100
N2348       N  0.74301204  0.70180631  0.82030888    -0.88600
H2349       H  0.68359855  0.70438495  0.92495145     0.35500
H2350       H  0.71473026  0.70271661  0.93696408     0.40600
H2351       H  0.76133087  0.69252866  0.82058531     0.40200
H2352       H  0.74648851  0.72142093  0.81529585     0.35100
C2353       C  0.89566506  0.97695384  0.68587587    -0.26700
C2354       C  0.91382805  0.95823948  0.69537207    -0.14700
C2355       C  0.90426504  0.93674967  0.71019221     0.35900
C2356       C  0.87726765  0.93389319  0.71392608    -0.26100
C2357       C  0.85921790  0.95164017  0.70289265    -0.15400
C2358       C  0.86853240  0.97387021  0.68944849     0.37000
N2359       N  0.85048323  0.99310958  0.67935234    -0.89600
H2360       H  0.90249991  0.99389463  0.67498274     0.18100
H2361       H  0.87032058  0.91680777  0.72456124     0.18100
N2362       N  0.92112609  0.91708088  0.72116266    -0.88600
H2363       H  0.86056242  0.00820842  0.66975666     0.35500
H2364       H  0.84100237  0.00171040  0.69541149     0.40600
H2365       H  0.93462987  0.92615766  0.73372370     0.40200
H2366       H  0.93102299  0.90751367  0.70594329     0.35100
C2367       C  0.20713444  0.88610743  0.60096163    -0.26700
C2368       C  0.19438520  0.86843787  0.58385942    -0.14700
C2369       C  0.18098515  0.87828206  0.56178735     0.35900
C2370       C  0.17966437  0.90555342  0.55797377    -0.26100
C2371       C  0.19151616  0.92339795  0.57566194    -0.15400
C2372       C  0.20597791  0.91340012  0.59709093     0.37000
N2373       N  0.21904280  0.93081314  0.61512517    -0.89600
H2374       H  0.21771553  0.87861994  0.61784922     0.18100
H2375       H  0.16869710  0.91282968  0.54125374     0.18100
N2376       N  0.16877470  0.86067105  0.54333357    -0.88600
H2377       H  0.23428747  0.93997627  0.60487431     0.35500
H2378       H  0.22782550  0.92025796  0.63040628     0.40600
H2379       H  0.18369413  0.84978127  0.53436746     0.40200
H2380       H  0.15939624  0.87115265  0.52836259     0.35100
C2381       C  0.05830737  0.98002462  0.61218894    -0.26700
C2382       C  0.06002662  0.97397005  0.63906852    -0.14700
C2383       C  0.08513701  0.97162671  0.65089843     0.35900
C2384       C  0.10761064  0.97536344  0.63531754    -0.26100
C2385       C  0.10568721  0.98180732  0.60847039    -0.15400
C2386       C  0.08069252  0.98415755  0.59694594     0.37000
N2387       N  0.07780964  0.99173866  0.56999053    -0.89600
H2388       H  0.03923632  0.98195639  0.60286971     0.18100
H2389       H  0.12677319  0.97369577  0.64446596     0.18100
N2390       N  0.08880427  0.96646916  0.67845340    -0.88600
H2391       H  0.06687434  0.00911261  0.56932814     0.35500
H2392       H  0.06712717  0.97708989  0.56029567     0.40600
H2393       H  0.07103810  0.96557769  0.68850713     0.40200
H2394       H  0.09894264  0.98245680  0.68648246     0.35100
C2395       C  0.07514015  0.18194264  0.65619837    -0.26700
C2396       C  0.07556201  0.20775484  0.66578933    -0.14700
C2397       C  0.07340696  0.22902812  0.64795900     0.35900
C2398       C  0.07141023  0.22392412  0.62088537    -0.26100
C2399       C  0.07141367  0.19811120  0.61146547    -0.15400
C2400       C  0.07336185  0.17694059  0.62929265     0.37000
N2401       N  0.07494668  0.15022535  0.62048917    -0.89600
H2402       H  0.07755610  0.16554790  0.66956528     0.18100
H2403       H  0.06972668  0.24006471  0.60710432     0.18100
N2404       N  0.07348160  0.25567815  0.65738103    -0.88600
H2405       H  0.09079450  0.14857066  0.60755009     0.35500
H2406       H  0.05770063  0.14548558  0.61039944     0.40600
H2407       H  0.05668801  0.25821818  0.66890506     0.40200
H2408       H  0.07195202  0.26890579  0.64174639     0.35100
C2409       C  0.11047004  0.06730001  0.55222219    -0.26700
C2410       C  0.13651166  0.06958672  0.56118657    -0.14700
C2411       C  0.14698287  0.09461293  0.56649918     0.35900
C2412       C  0.13139266  0.11693060  0.56171117    -0.26100
C2413       C  0.10557147  0.11461492  0.55196544    -0.15400
C2414       C  0.09495942  0.08944853  0.54731810     0.37000
N2415       N  0.06891051  0.08639678  0.53674183    -0.89600
H2416       H  0.10233091  0.04797535  0.54839228     0.18100
H2417       H  0.13952259  0.13626345  0.56542667     0.18100
N2418       N  0.17361069  0.09738209  0.57546794    -0.88600
H2419       H  0.06404307  0.06651373  0.53489745     0.35500
H2420       H  0.06898403  0.09413078  0.51770919     0.40600
H2421       H  0.17460085  0.08960990  0.59444388     0.40200
H2422       H  0.17862159  0.11724315  0.57712547     0.35100
C2423       C  0.92531394  0.82032816  0.37979969    -0.26700
C2424       C  0.93844670  0.83707857  0.36209413    -0.14700
C2425       C  0.95610727  0.85603560  0.37202808     0.35900
C2426       C  0.95922332  0.85853879  0.39928257    -0.26100
C2427       C  0.94529647  0.84245869  0.41693226    -0.15400
C2428       C  0.92853938  0.82288152  0.40698584     0.37000
N2429       N  0.91476914  0.80551528  0.42430707    -0.89600
H2430       H  0.91181061  0.80548702  0.37264468     0.18100
H2431       H  0.97228708  0.87361530  0.40675079     0.18100
N2432       N  0.97059104  0.87288524  0.35460204    -0.88600
H2433       H  0.92017714  0.78624045  0.41970130     0.35500
H2434       H  0.89464753  0.80748596  0.42067415     0.40600
H2435       H  0.98359000  0.86103956  0.34400725     0.40200
H2436       H  0.98214185  0.88619171  0.36520038     0.35100
C2437       C  0.94161173  0.90521424  0.57511719    -0.26700
C2438       C  0.96079778  0.88734403  0.56668981    -0.14700
C2439       C  0.98470435  0.88535594  0.58051314     0.35900
C2440       C  0.98928379  0.90181461  0.60214809    -0.26100
C2441       C  0.97078745  0.92077357  0.60970770    -0.15400
C2442       C  0.94651207  0.92228986  0.59635133     0.37000
N2443       N  0.92687799  0.94084290  0.60453596    -0.89600
H2444       H  0.92347265  0.90699127  0.56408796     0.18100
H2445       H  0.00777042  0.90046641  0.61265061     0.18100
N2446       N  0.00452015  0.86714735  0.57194966    -0.88600
H2447       H  0.90969636  0.93841929  0.59351681     0.35500
H2448       H  0.93387266  0.95965090  0.60018708     0.40600
H2449       H  0.99689367  0.84818747  0.57408163     0.40200
H2450       H  0.02109315  0.86827307  0.58405339     0.35100
C2451       C  0.81200894  0.12499353  0.42923006    -0.26700
C2452       C  0.82597625  0.11886692  0.45220045    -0.14700
C2453       C  0.83346710  0.13957737  0.46938005     0.35900
C2454       C  0.82829566  0.16573519  0.46224998    -0.26100
C2455       C  0.81525740  0.17179324  0.43880007    -0.15400
C2456       C  0.80668716  0.15110655  0.42223241     0.37000
N2457       N  0.79355209  0.15659462  0.39780208    -0.89600
H2458       H  0.80599884  0.10938609  0.41604156     0.18100
H2459       H  0.83449951  0.18153839  0.47512565     0.18100
N2460       N  0.84660498  0.13420884  0.49382147    -0.88600
H2461       H  0.78808664  0.13919702  0.38830886     0.35500
H2462       H  0.80708437  0.16591414  0.38550056     0.40600
H2463       H  0.83318094  0.12454230  0.50598130     0.40200
H2464       H  0.85161342  0.15165926  0.50346917     0.35100
C2465       C  0.89077641  0.92661730  0.46476401    -0.26700
C2466       C  0.91472028  0.92747708  0.47857078    -0.14700
C2467       C  0.92357937  0.95162424  0.48887229     0.35900
C2468       C  0.90838994  0.97412380  0.48546539    -0.26100
C2469       C  0.88447602  0.97351942  0.47157157    -0.15400
C2470       C  0.87574559  0.94950052  0.46068727     0.37000
N2471       N  0.85149239  0.94816751  0.44625466    -0.89600
H2472       H  0.88390683  0.90802575  0.45693560     0.18100
H2473       H  0.91560955  0.99241200  0.49368873     0.18100
N2474       N  0.94741061  0.95380777  0.50373680    -0.88600
H2475       H  0.84714735  0.92871506  0.44122892     0.35500
H2476       H  0.85433271  0.95806473  0.42849993     0.40600
H2477       H  0.96321687  0.94887549  0.49164466     0.40200
H2478       H  0.94660910  0.94066158  0.51949907     0.35100
C2479       C  0.14249385  0.11209291  0.31504419    -0.26700
C2480       C  0.16076229  0.09375216  0.32473404    -0.14700
C2481       C  0.15173180  0.07088066  0.33727021     0.35900
C2482       C  0.12463057  0.06717854  0.34041479    -0.26100
C2483       C  0.10623331  0.08594425  0.33149209    -0.15400
C2484       C  0.11544473  0.10850885  0.31843527     0.37000
N2485       N  0.09761714  0.12815521  0.30908288    -0.89600
H2486       H  0.14924817  0.12983626  0.30540409     0.18100
H2487       H  0.11797655  0.04962212  0.35040891     0.18100
N2488       N  0.17000452  0.05152781  0.34673928    -0.88600
H2489       H  0.10050391  0.13032364  0.28886710     0.35500
H2490       H  0.10240538  0.14597531  0.31814924     0.40600
H2491       H  0.17962742  0.04358693  0.33043092     0.40200
H2492       H  0.16010243  0.03598929  0.35580955     0.35100
C2493       C  0.93785575  0.07524014  0.38085964    -0.26700
C2494       C  0.96221020  0.06843288  0.39175443    -0.14700
C2495       C  0.96325089  0.05900970  0.41788303     0.35900
C2496       C  0.94013191  0.05603867  0.43234772    -0.26100
C2497       C  0.91570784  0.06191964  0.42125785    -0.15400
C2498       C  0.91448183  0.07184561  0.39529524     0.37000
N2499       N  0.88957023  0.07843337  0.38372660    -0.89600
H2500       H  0.93701655  0.08261866  0.36091588     0.18100
H2501       H  0.94128788  0.04835879  0.45217819     0.18100
N2502       N  0.98786711  0.05262810  0.43000049    -0.88600
H2503       H  0.89207913  0.08528183  0.36453024     0.35500
H2504       H  0.88165914  0.09400167  0.39453846     0.40600
H2505       H  0.98723912  0.03292563  0.43578488     0.40200
H2506       H  0.98996290  0.06418143  0.44687080     0.35100
C2507       C  0.03466420  0.14227690  0.42348280    -0.26700
C2508       C  0.05134452  0.12105889  0.41772082    -0.14700
C2509       C  0.07403352  0.11700224  0.43314205     0.35900
C2510       C  0.07874948  0.13345807  0.45491185    -0.26100
C2511       C  0.06115350  0.15364085  0.46141889    -0.15400
C2512       C  0.03921517  0.15844706  0.44532286     0.37000
N2513       N  0.02119547  0.17919612  0.45182263    -0.89600
H2514       H  0.01743401  0.14567489  0.41142939     0.18100
H2515       H  0.09539187  0.12965513  0.46765488     0.18100
N2516       N  0.09198996  0.09617191  0.42680088    -0.88600
H2517       H  0.00587969  0.18000879  0.43813738     0.35500
H2518       H  0.03139270  0.19697304  0.45033755     0.40600
H2519       H  0.10756939  0.09579172  0.44020608     0.40200
H2520       H  0.10014963  0.10040773  0.40844392     0.35100
C2521       C  0.88697186  0.06483704  0.83476259    -0.26700
C2522       C  0.90502474  0.08425798  0.82661670    -0.14700
C2523       C  0.89519826  0.10694650  0.81384783     0.35900
C2524       C  0.86812178  0.11012619  0.81081909    -0.26100
C2525       C  0.85017386  0.09153208  0.82055710    -0.15400
C2526       C  0.85987191  0.06829924  0.83211037     0.37000
N2527       N  0.84286108  0.04771524  0.84100452    -0.89600
H2528       H  0.89381075  0.04698185  0.84410670     0.18100
H2529       H  0.86104148  0.12793327  0.80153292     0.18100
N2530       N  0.91188506  0.12744693  0.80421261    -0.88600
H2531       H  0.83066033  0.04206103  0.82544246     0.35500
H2532       H  0.83133440  0.05481042  0.85639954     0.40600
H2533       H  0.92516478  0.11940221  0.79078436     0.40200
H2534       H  0.92203508  0.13584244  0.81997715     0.35100
C2535       C  0.99874477  0.05024484  0.76217408    -0.26700
C2536       C  0.99880582  0.03626459  0.78603000    -0.14700
C2537       C  0.00256941  0.00877943  0.78535391     0.35900
C2538       C  0.00395663  0.99579944  0.76096502    -0.26100
C2539       C  0.00196758  0.00958476  0.73704376    -0.15400
C2540       C  0.00043371  0.03730628  0.73777387     0.37000
N2541       N  0.00003752  0.05226712  0.71382975    -0.89600
H2542       H  0.99641182  0.07139728  0.76244755     0.18100
H2543       H  0.00569763  0.97458989  0.76076217     0.18100
N2544       N  0.00463385  0.99404113  0.80935447    -0.88600
H2545       H  0.01821386  0.04965619  0.70465733     0.35500
H2546       H  0.99835935  0.07235299  0.71781468     0.40600
H2547       H  0.02173555  0.00022416  0.81895023     0.40200
H2548       H  0.00704011  0.97402234  0.80541785     0.35100
C2549       C  0.16878364  0.14055616  0.96367028    -0.26700
C2550       C  0.18483718  0.12143785  0.95194574    -0.14700
C2551       C  0.20696105  0.12916987  0.93734915     0.35900
C2552       C  0.21181870  0.15593143  0.93368578    -0.26100
C2553       C  0.19512521  0.17520053  0.94437487    -0.15400
C2554       C  0.17367902  0.16739948  0.96012046     0.37000
N2555       N  0.15666240  0.18654203  0.97202092    -0.89600
H2556       H  0.15185151  0.13455169  0.97506380     0.18100
H2557       H  0.22850966  0.16164247  0.92182003     0.18100
N2558       N  0.22431634  0.10989152  0.92616351    -0.88600
H2559       H  0.16770079  0.19673206  0.98606676     0.35500
H2560       H  0.14136350  0.17737480  0.98218295     0.40600
H2561       H  0.23321313  0.09981378  0.94170664     0.40200
H2562       H  0.23944058  0.11892860  0.91563716     0.35100
C2563       C  0.04884129  0.05784593  0.91192610    -0.26700
C2564       C  0.04975250  0.07098382  0.88764583    -0.14700
C2565       C  0.07372310  0.08183326  0.87914919     0.35900
C2566       C  0.09644892  0.07840031  0.89454281    -0.26100
C2567       C  0.09545971  0.06483918  0.91861487    -0.15400
C2568       C  0.07127252  0.05483063  0.92756672     0.37000
N2569       N  0.06975330  0.04044271  0.95183345    -0.89600
H2570       H  0.03039143  0.04985463  0.91889414     0.18100
H2571       H  0.11500096  0.08613043  0.88753797     0.18100
N2572       N  0.07528666  0.09557621  0.85466558    -0.88600
H2573       H  0.05100115  0.03245173  0.95436693     0.35500
H2574       H  0.07233171  0.05389314  0.96714732     0.40600
H2575       H  0.08905864  0.08599689  0.84283642     0.40200
H2576       H  0.08226717  0.11453301  0.85845589     0.35100
C2577       C  0.08666851  0.81754201  0.88153851    -0.26700
C2578       C  0.07523659  0.83381630  0.86227031    -0.14700
C2579       C  0.05868676  0.85450383  0.87016189     0.35900
C2580       C  0.05455510  0.85899986  0.89687843    -0.26100
C2581       C  0.06667268  0.84330822  0.91609702    -0.15400
C2582       C  0.08252713  0.82202484  0.90836459     0.37000
N2583       N  0.09438874  0.80511524  0.92764312    -0.89600
H2584       H  0.09930657  0.80143736  0.87576914     0.18100
H2585       H  0.04228066  0.87544067  0.90254722     0.18100
N2586       N  0.04623130  0.87124824  0.85127696    -0.88600
H2587       H  0.10579415  0.79063465  0.91859971     0.35500
H2588       H  0.07922948  0.79531833  0.93743472     0.40600
H2589       H  0.05217906  0.89057972  0.85494473     0.40200
H2590       H  0.02592718  0.87016328  0.85413276     0.35100
C2591       C  0.12126643  0.93622740  0.98900878    -0.26700
C2592       C  0.10067105  0.92981807  0.97183085    -0.14700
C2593       C  0.09703457  0.94456556  0.94864527     0.35900
C2594       C  0.11298873  0.96675537  0.94419696    -0.26100
C2595       C  0.13244417  0.97398824  0.96241647    -0.15400
C2596       C  0.13701554  0.95814333  0.98462650     0.37000
N2597       N  0.15754487  0.96389779  0.00306254    -0.89600
H2598       H  0.12467296  0.92452734  0.00647461     0.18100
H2599       H  0.10955529  0.97900954  0.92712546     0.18100
N2600       N  0.07737680  0.93692275  0.92982268    -0.88600
H2601       H  0.15385435  0.98207134  0.01184841     0.35500
H2602       H  0.17529888  0.96505989  0.99282791     0.40600
H2603       H  0.08264755  0.91847869  0.92245025     0.40200
H2604       H  0.07736631  0.94981232  0.91383261     0.35100
C2605       C  0.14857045  0.97146104  0.18512317    -0.26700
C2606       C  0.15554616  0.95141773  0.20258377    -0.14700
C2607       C  0.13544888  0.93730971  0.21574433     0.35900
C2608       C  0.10903199  0.94355624  0.21091849    -0.26100
C2609       C  0.10198627  0.96303039  0.19277208    -0.15400
C2610       C  0.12229344  0.97738429  0.17997378     0.37000
N2611       N  0.11719329  0.99754892  0.16101548    -0.89600
H2612       H  0.16370527  0.98247229  0.17498480     0.18100
H2613       H  0.09381854  0.93250934  0.22087533     0.18100
N2614       N  0.14173414  0.91602448  0.23323613    -0.88600
H2615       H  0.10677856  0.01276966  0.17001566     0.35500
H2616       H  0.10627656  0.98961292  0.14551151     0.40600
H2617       H  0.14985510  0.90093275  0.22190770     0.40200
H2618       H  0.12474050  0.90828706  0.24177205     0.35100
C2619       C  0.02598797  0.00967972  0.28710749    -0.26700
C2620       C  0.01513649  0.03489102  0.28967859    -0.14700
C2621       C  0.00274791  0.04645144  0.26747296     0.35900
C2622       C  0.00324572  0.03334741  0.24305216    -0.26100
C2623       C  0.01496024  0.00859963  0.24046767    -0.15400
C2624       C  0.02617757  0.99650446  0.26284279     0.37000
N2625       N  0.03883303  0.97132944  0.26062250    -0.89600
H2626       H  0.03551302  0.00060408  0.30383560     0.18100
H2627       H  0.99436493  0.04242726  0.22596389     0.18100
N2628       N  0.98985563  0.07148556  0.26963414    -0.88600
H2629       H  0.04586342  0.96505616  0.27888082     0.35500
H2630       H  0.05527299  0.97368869  0.24855832     0.40600
H2631       H  0.97384636  0.06907079  0.28224915     0.40200
H2632       H  0.98214166  0.07729529  0.25149548     0.35100
C2633       C  0.02231142  0.91269760  0.09823188    -0.26700
C2634       C  0.04205723  0.93010527  0.10648030    -0.14700
C2635       C  0.06617728  0.93082972  0.09285073     0.35900
C2636       C  0.06982649  0.91451838  0.07096096    -0.26100
C2637       C  0.04964157  0.89784841  0.06220956    -0.15400
C2638       C  0.02574368  0.89675806  0.07604142     0.37000
N2639       N  0.00500332  0.87965683  0.06727314    -0.89600
H2640       H  0.00393675  0.91187967  0.10893990     0.18100
H2641       H  0.08809809  0.91562895  0.06010821     0.18100
N2642       N  0.08731335  0.94754226  0.10103028    -0.88600
H2643       H  0.98863022  0.88128975  0.07954641     0.35500
H2644       H  0.01173633  0.86032962  0.06898180     0.40600
H2645       H  0.09197657  0.94308296  0.12053618     0.40200
H2646       H  0.08095439  0.96703881  0.10014248     0.35100
C2647       C  0.84582639  0.90921796  0.06189552    -0.26700
C2648       C  0.82535641  0.92632838  0.06874525    -0.14700
C2649       C  0.80138413  0.91589569  0.07774939     0.35900
C2650       C  0.79891851  0.88876944  0.08096480    -0.26100
C2651       C  0.82015527  0.87163116  0.07610556    -0.15400
C2652       C  0.84368993  0.88218359  0.06568602     0.37000
N2653       N  0.86614327  0.86637951  0.05961315    -0.89600
H2654       H  0.86427526  0.91704364  0.05469529     0.18100
H2655       H  0.78043719  0.88123841  0.08834426     0.18100
N2656       N  0.77921156  0.93221071  0.08356726    -0.88600
H2657       H  0.86072753  0.85218382  0.04577217     0.35500
H2658       H  0.87282759  0.85730998  0.07677656     0.40600
H2659       H  0.77497995  0.94364381  0.06703268     0.40200
H2660       H  0.78398984  0.94461688  0.09921209     0.35100
C2661       C  0.95719876  0.98397766  0.11171235    -0.26700
C2662       C  0.95506560  0.97649011  0.13818363    -0.14700
C2663       C  0.93003393  0.97163322  0.14884426     0.35900
C2664       C  0.90757606  0.97596238  0.13311504    -0.26100
C2665       C  0.90973692  0.98442740  0.10680390    -0.15400
C2666       C  0.93498712  0.98804141  0.09593766     0.37000
N2667       N  0.93812706  0.99666437  0.06921683    -0.89600
H2668       H  0.97650585  0.98721457  0.10335340     0.18100
H2669       H  0.88827794  0.97287051  0.14150247     0.18100
N2670       N  0.92741349  0.96350542  0.17573810    -0.88600
H2671       H  0.95800407  0.99767596  0.06416820     0.35500
H2672       H  0.93086507  0.01583445  0.06798439     0.40600
H2673       H  0.93533217  0.94462179  0.17729011     0.40200
H2674       H  0.90758920  0.96185440  0.18079773     0.35100
C2675       C  0.91877508  0.22656684  0.14555601    -0.26700
C2676       C  0.93561127  0.21344579  0.16313135    -0.14700
C2677       C  0.95667432  0.19863122  0.15314692     0.35900
C2678       C  0.95937354  0.19581924  0.12591845    -0.26100
C2679       C  0.94150897  0.20742018  0.10816501    -0.15400
C2680       C  0.92131794  0.22359996  0.11820130     0.37000
N2681       N  0.90322633  0.23665171  0.10087947    -0.89600
H2682       H  0.90275038  0.23829224  0.15318494     0.18100
H2683       H  0.97532554  0.18378982  0.11865438     0.18100
N2684       N  0.97518356  0.18634496  0.17062252    -0.88600
H2685       H  0.89108062  0.24941659  0.11142140     0.35500
H2686       H  0.89083605  0.22229636  0.09295021     0.40600
H2687       H  0.98518997  0.20129687  0.18058001     0.40200
H2688       H  0.98933008  0.17584928  0.16008033     0.35100
C2689       C  0.94832437  0.16003513  0.93815699    -0.26700
C2690       C  0.95077000  0.14769578  0.96262429    -0.14700
C2691       C  0.95542409  0.12038432  0.96358146     0.35900
C2692       C  0.95908992  0.10615586  0.94032664    -0.26100
C2693       C  0.95837322  0.11860968  0.91578115    -0.15400
C2694       C  0.95212016  0.14577792  0.91463926     0.37000
N2695       N  0.94983320  0.15884066  0.88971385    -0.89600
H2696       H  0.94436456  0.18093715  0.93742032     0.18100
H2697       H  0.96343421  0.08535334  0.94163805     0.18100
N2698       N  0.95646900  0.10696604  0.98831219    -0.88600
H2699       H  0.94542148  0.17873273  0.89234679     0.35500
H2700       H  0.93384768  0.15053355  0.87980496     0.40600
H2701       H  0.97481220  0.09788074  0.98993158     0.40200
H2702       H  0.94207862  0.09229614  0.98823978     0.35100
C2703       C  0.90947592  0.10475735  0.07357084    -0.26700
C2704       C  0.90218450  0.12145362  0.05286622    -0.14700
C2705       C  0.87929153  0.11565094  0.03812086     0.35900
C2706       C  0.86511951  0.09266619  0.04357309    -0.26100
C2707       C  0.87275736  0.07571532  0.06377704    -0.15400
C2708       C  0.89502964  0.08198105  0.07930401     0.37000
N2709       N  0.90410677  0.06541923  0.10033705    -0.89600
H2710       H  0.92679698  0.10921322  0.08515986     0.18100
H2711       H  0.84841159  0.08744602  0.03140425     0.18100
N2712       N  0.87130136  0.13220158  0.01665943    -0.88600
H2713       H  0.92255005  0.05811340  0.09505902     0.35500
H2714       H  0.89189906  0.04921696  0.10315990     0.40600
H2715       H  0.86360362  0.14942761  0.02475559     0.40200
H2716       H  0.85588165  0.12356136  0.00615562     0.35100
C2717       C  0.67514292  0.90379856  0.96135245    -0.26700
C2718       C  0.68922257  0.92270969  0.94684514    -0.14700
C2719       C  0.70936426  0.91424990  0.92981024     0.35900
C2720       C  0.71455644  0.88724960  0.92745411    -0.26100
C2721       C  0.69973013  0.86830809  0.94116169    -0.15400
C2722       C  0.68010618  0.87680906  0.95872409     0.37000
N2723       N  0.66507169  0.85814776  0.97366068    -0.89600
H2724       H  0.65965747  0.91000584  0.97453340     0.18100
H2725       H  0.72971246  0.88098993  0.91392076     0.18100
N2726       N  0.72448322  0.93286489  0.91489556    -0.88600
H2727       H  0.65094688  0.86766195  0.98511233     0.35500
H2728       H  0.67794776  0.84894725  0.98676232     0.40600
H2729       H  0.71226488  0.94025660  0.90012790     0.40200
H2730       H  0.73995057  0.92349029  0.90519335     0.35100
C2731       C  0.72917786  0.01681637  0.02239973    -0.26700
C2732       C  0.72987081  0.01422047  0.99493018    -0.14700
C2733       C  0.75467057  0.01377891  0.98227230     0.35900
C2734       C  0.77782018  0.01527660  0.99734196    -0.26100
C2735       C  0.77720890  0.01654699  0.02491581    -0.15400
C2736       C  0.75239813  0.01810562  0.03751491     0.37000
N2737       N  0.75064777  0.02011250  0.06563193    -0.89600
H2738       H  0.71034493  0.01738848  0.03225979     0.18100
H2739       H  0.79657502  0.01422080  0.98738326     0.18100
N2740       N  0.75650563  0.01054357  0.95425487    -0.88600
H2741       H  0.73105936  0.01966633  0.07175290     0.35500
H2742       H  0.75792998  0.03858580  0.07094819     0.40600
H2743       H  0.75004620  0.99154537  0.94978103     0.40200
H2744       H  0.77604770  0.01157872  0.94804629     0.35100
C2745       C  0.56826544  0.22467156  0.89983682    -0.26700
C2746       C  0.56097415  0.19941055  0.90769618    -0.14700
C2747       C  0.55685027  0.17961947  0.88862610     0.35900
C2748       C  0.56132162  0.18527525  0.86205685    -0.26100
C2749       C  0.56994500  0.21021155  0.85419091    -0.15400
C2750       C  0.57226868  0.23049584  0.87319339     0.37000
N2751       N  0.57882204  0.25686935  0.86545391    -0.89600
H2752       H  0.57075328  0.23988979  0.91454112     0.18100
H2753       H  0.55931866  0.16973375  0.84763122     0.18100
N2754       N  0.54927609  0.15352110  0.89642017    -0.88600
H2755       H  0.57993111  0.26924157  0.88182977     0.35500
H2756       H  0.56339130  0.26388023  0.85383534     0.40600
H2757       H  0.56474445  0.14556425  0.90735627     0.40200
H2758       H  0.54685560  0.14140039  0.87999532     0.35100
C2759       C  0.63891659  0.09145689  0.95196171    -0.26700
C2760       C  0.62734211  0.06696615  0.95679573    -0.14700
C2761       C  0.60021592  0.06557947  0.96253490     0.35900
C2762       C  0.58566437  0.08878947  0.96526543    -0.26100
C2763       C  0.59750553  0.11345285  0.96225398    -0.15400
C2764       C  0.62426393  0.11480938  0.95462306     0.37000
N2765       N  0.63650992  0.13980840  0.94981183    -0.89600
H2766       H  0.65956395  0.09240034  0.94691592     0.18100
H2767       H  0.56512522  0.08756923  0.97067402     0.18100
N2768       N  0.58754535  0.04049916  0.96569361    -0.88600
H2769       H  0.62716437  0.14821453  0.93355783     0.35500
H2770       H  0.65621822  0.13733917  0.94462184     0.40600
H2771       H  0.58835455  0.03079353  0.94759684     0.40200
H2772       H  0.56764178  0.04288910  0.97011998     0.35100
C2773       C  0.61143297  0.09137059  0.21158119    -0.26700
C2774       C  0.60524548  0.07857063  0.18807500    -0.14700
C2775       C  0.62573977  0.06922244  0.17178278     0.35900
C2776       C  0.65194970  0.07413540  0.17885246    -0.26100
C2777       C  0.65816114  0.08828696  0.20170459    -0.15400
C2778       C  0.63756018  0.09601201  0.21873271     0.37000
N2779       N  0.64288540  0.10881675  0.24324842    -0.89600
H2780       H  0.59586460  0.09794170  0.22451618     0.18100
H2781       H  0.66751260  0.06781004  0.16581688     0.18100
N2782       N  0.61995157  0.05569199  0.14762742    -0.88600
H2783       H  0.63472252  0.09747590  0.25829246     0.35500
H2784       H  0.63344492  0.12705768  0.24316331     0.40600
H2785       H  0.63723052  0.04971847  0.13829924     0.40200
H2786       H  0.61084155  0.06910887  0.13501677     0.35100
C2787       C  0.55593072  0.13832518  0.10109303    -0.26700
C2788       C  0.54773210  0.11188356  0.09935975    -0.14700
C2789       C  0.54335533  0.10081309  0.07437012     0.35900
C2790       C  0.54633763  0.11632008  0.05189510    -0.26100
C2791       C  0.55369312  0.14287341  0.05358710    -0.15400
C2792       C  0.55910482  0.15392682  0.07837658     0.37000
N2793       N  0.56694977  0.18097968  0.08046119    -0.89600
H2794       H  0.55945841  0.14695160  0.12024190     0.18100
H2795       H  0.54240219  0.10756157  0.03285988     0.18100
N2796       N  0.53472150  0.07414405  0.07167215    -0.88600
H2797       H  0.57016663  0.18604740  0.10011569     0.35500
H2798       H  0.55128535  0.19252371  0.07388984     0.40600
H2799       H  0.54827910  0.06418667  0.05990772     0.40200
H2800       H  0.51664750  0.07417508  0.06188429     0.35100
C2801       C  0.38882254  0.97153352  0.84506777    -0.26700
C2802       C  0.40695133  0.95674308  0.83037534    -0.14700
C2803       C  0.39763819  0.93952735  0.81072615     0.35900
C2804       C  0.37048533  0.93646045  0.80726604    -0.26100
C2805       C  0.35233133  0.95038937  0.82277994    -0.15400
C2806       C  0.36173173  0.96854651  0.84144983     0.37000
N2807       N  0.34396880  0.98392588  0.85691316    -0.89600
H2808       H  0.39561360  0.98507796  0.86004933     0.18100
H2809       H  0.36354768  0.92262056  0.79263961     0.18100
N2810       N  0.41565399  0.92513357  0.79443058    -0.88600
H2811       H  0.34803343  0.00377628  0.85351632     0.35500
H2812       H  0.34766057  0.97999474  0.87673663     0.40600
H2813       H  0.42592295  0.93880249  0.78305343     0.40200
H2814       H  0.40553311  0.91299995  0.78127211     0.35100
C2815       C  0.59782181  0.98818661  0.88557963    -0.26700
C2816       C  0.60123058  0.97592038  0.91013797    -0.14700
C2817       C  0.58229348  0.95754024  0.91879551     0.35900
C2818       C  0.55980447  0.95296312  0.90336944    -0.26100
C2819       C  0.55597392  0.96627836  0.87958180    -0.15400
C2820       C  0.57518352  0.98382214  0.87040426     0.37000
N2821       N  0.57144353  0.99734997  0.84588873    -0.89600
H2822       H  0.61233444  0.00212720  0.87866275     0.18100
H2823       H  0.54470112  0.93968967  0.91037752     0.18100
N2824       N  0.58578359  0.94379451  0.94321546    -0.88600
H2825       H  0.58771304  0.00914279  0.84163606     0.35500
H2826       H  0.55548663  0.01006854  0.84809582     0.40600
H2827       H  0.60229686  0.93175215  0.94123562     0.40200
H2828       H  0.56986141  0.93132568  0.94682846     0.35100
C2829       C  0.30246585  0.15163895  0.08810256    -0.26700
C2830       C  0.32077569  0.17042751  0.07911765    -0.14700
C2831       C  0.34193923  0.16174098  0.06333726     0.35900
C2832       C  0.34476181  0.13495864  0.05796031    -0.26100
C2833       C  0.32730533  0.11617985  0.06823887    -0.15400
C2834       C  0.30555638  0.12484951  0.08307239     0.37000
N2835       N  0.28607968  0.10714694  0.09306455    -0.89600
H2836       H  0.28575946  0.15759392  0.09983824     0.18100
H2837       H  0.36149577  0.12873300  0.04638980     0.18100
N2838       N  0.36114470  0.17932474  0.05271462    -0.88600
H2839       H  0.29469338  0.09485791  0.10705234     0.35500
H2840       H  0.27880681  0.09582428  0.07751880     0.40600
H2841       H  0.37109784  0.18851379  0.06816915     0.40200
H2842       H  0.35159428  0.19339225  0.04120346     0.35100
C2843       C  0.25322316  0.02976326  0.97998091    -0.26700
C2844       C  0.23010668  0.03056296  0.99513668    -0.14700
C2845       C  0.23236414  0.02894080  0.02279335     0.35900
C2846       C  0.25743712  0.02785823  0.03448720    -0.26100
C2847       C  0.28059906  0.02823827  0.01939400    -0.15400
C2848       C  0.27831362  0.02854598  0.99169144     0.37000
N2849       N  0.30138524  0.02802626  0.97545317    -0.89600
H2850       H  0.25183249  0.03082113  0.95877268     0.18100
H2851       H  0.25881315  0.02751188  0.05571932     0.18100
N2852       N  0.20929550  0.02879001  0.03905388    -0.88600
H2853       H  0.29631174  0.02892768  0.95556237     0.35500
H2854       H  0.31052056  0.00985564  0.97832002     0.40600
H2855       H  0.21439092  0.02819158  0.05894852     0.40200
H2856       H  0.19907660  0.01139446  0.03509629     0.35100
C2857       C  0.41188069  0.06661462  0.12649141    -0.26700
C2858       C  0.41392633  0.05784638  0.10028994    -0.14700
C2859       C  0.43902750  0.05328957  0.08951741     0.35900
C2860       C  0.46133612  0.05742931  0.10511626    -0.26100
C2861       C  0.45933822  0.06563113  0.13140041    -0.15400
C2862       C  0.43430313  0.07067386  0.14206861     0.37000
N2863       N  0.43101161  0.07888715  0.16877186    -0.89600
H2864       H  0.39270518  0.07012850  0.13500486     0.18100
H2865       H  0.48056315  0.05369103  0.09679261     0.18100
N2866       N  0.44184165  0.04354660  0.06313348    -0.88600
H2867       H  0.44062184  0.09686345  0.17130965     0.35500
H2868       H  0.43986754  0.06496145  0.18099844     0.40600
H2869       H  0.43386018  0.02461195  0.06259834     0.40200
H2870       H  0.46167069  0.04163383  0.05816902     0.35100
C2871       C  0.41743047  0.82742614  0.11690665    -0.26700
C2872       C  0.44228423  0.83631241  0.10900612    -0.14700
C2873       C  0.46177012  0.84121374  0.12844136     0.35900
C2874       C  0.45554307  0.83809078  0.15511575    -0.26100
C2875       C  0.43070930  0.82939548  0.16280664    -0.15400
C2876       C  0.41138457  0.82403087  0.14356880     0.37000
N2877       N  0.38543349  0.81587957  0.15122921    -0.89600
H2878       H  0.40232878  0.82389119  0.10230872     0.18100
H2879       H  0.47032575  0.84190450  0.16998371     0.18100
N2880       N  0.48784833  0.84925932  0.12117342    -0.88600
H2881       H  0.37361043  0.81264355  0.13472319     0.35500
H2882       H  0.37688440  0.83139533  0.16162806     0.40600
H2883       H  0.49650981  0.83357862  0.11112461     0.40200
H2884       H  0.49942331  0.85263088  0.13782649     0.35100
C2885       C  0.45475825  0.89788400  0.91597848    -0.26700
C2886       C  0.46615319  0.92304563  0.91766577    -0.14700
C2887       C  0.47393573  0.93281812  0.94238142     0.35900
C2888       C  0.47087059  0.91692726  0.96465842    -0.26100
C2889       C  0.46018279  0.89144102  0.96295672    -0.15400
C2890       C  0.45138783  0.88216903  0.93832087     0.37000
N2891       N  0.43974316  0.85673871  0.93518638    -0.89600
H2892       H  0.44856301  0.89027994  0.89706159     0.18100
H2893       H  0.47708734  0.92452475  0.98357026     0.18100
N2894       N  0.48567465  0.95843645  0.94473765    -0.88600
H2895       H  0.42240039  0.85607953  0.94611548     0.35500
H2896       H  0.45277620  0.84263709  0.94246296     0.40600
H2897       H  0.50368021  0.95796513  0.93489831     0.40200
H2898       H  0.48991586  0.96275245  0.96437760     0.35100
C2899       C  0.41564348  0.93965375  0.06756277    -0.26700
C2900       C  0.41028807  0.92279252  0.04645377    -0.14700
C2901       C  0.38993677  0.92920931  0.02864738     0.35900
C2902       C  0.37538244  0.95233802  0.03241808    -0.26100
C2903       C  0.38055088  0.96908385  0.05363851    -0.15400
C2904       C  0.40100001  0.96265025  0.07152295     0.37000
N2905       N  0.40833623  0.97933475  0.09315537    -0.89600
H2906       H  0.43135932  0.93492146  0.08114662     0.18100
H2907       H  0.36018899  0.95761634  0.01844871     0.18100
N2908       N  0.38462976  0.91263866  0.00635161    -0.88600
H2909       H  0.40479924  0.96893586  0.11049993     0.35500
H2910       H  0.39696396  0.99630544  0.09404700     0.40600
H2911       H  0.40114088  0.91316561  0.99416136     0.40200
H2912       H  0.36896624  0.92005572  0.99532131     0.35100
C2913       C  0.69835050  0.12974792  0.59026090    -0.26700
C2914       C  0.68180495  0.12105346  0.56996916    -0.14700
C2915       C  0.66939100  0.13994812  0.55360829     0.35900
C2916       C  0.67361877  0.16679528  0.55824313    -0.26100
C2917       C  0.69001383  0.17537816  0.57859569    -0.15400
C2918       C  0.70239656  0.15660128  0.59497292     0.37000
N2919       N  0.71836288  0.16474083  0.61686947    -0.89600
H2920       H  0.70778218  0.11553289  0.60298269     0.18100
H2921       H  0.66408463  0.18114857  0.54574291     0.18100
N2922       N  0.65208105  0.13206743  0.53267836    -0.88600
H2923       H  0.72637263  0.14848969  0.62654092     0.35500
H2924       H  0.70603002  0.17403811  0.63040476     0.40600
H2925       H  0.66368985  0.12371231  0.51795258     0.40200
H2926       H  0.64299125  0.14839267  0.52415203     0.35100
C2927       C  0.73574780  0.02670806  0.50161904    -0.26700
C2928       C  0.73470269  0.03180896  0.52864302    -0.14700
C2929       C  0.75852410  0.03471356  0.54280765     0.35900
C2930       C  0.78259122  0.03359485  0.52934426    -0.26100
C2931       C  0.78360640  0.02983769  0.50202968    -0.15400
C2932       C  0.75978314  0.02534817  0.48818419     0.37000
N2933       N  0.75981031  0.02013644  0.46041041    -0.89600
H2934       H  0.71761833  0.02393092  0.49078872     0.18100
H2935       H  0.80064003  0.03673029  0.54020171     0.18100
N2936       N  0.75833166  0.03982893  0.57060596    -0.88600
H2937       H  0.74064177  0.01873387  0.45314012     0.35500
H2938       H  0.76832589  0.00164727  0.45766691     0.40600
H2939       H  0.75033512  0.05854318  0.57339962     0.40200
H2940       H  0.77746038  0.04055798  0.57807688     0.35100
C2941       C  0.39966156  0.08841604  0.71526318    -0.26700
C2942       C  0.40757197  0.08155463  0.68986099    -0.14700
C2943       C  0.38868392  0.07895443  0.66969692     0.35900
C2944       C  0.36217688  0.08294713  0.67540897    -0.26100
C2945       C  0.35398423  0.08998864  0.70072759    -0.15400
C2946       C  0.37292482  0.09234002  0.72106573     0.37000
N2947       N  0.36503967  0.09844436  0.74747880    -0.89600
H2948       H  0.41428177  0.09010961  0.73066715     0.18100
H2949       H  0.34794592  0.08141434  0.65963668     0.18100
N2950       N  0.39661862  0.07299858  0.64322638    -0.88600
H2951       H  0.38140224  0.09975724  0.75985006     0.35500
H2952       H  0.35379063  0.08267375  0.75431713     0.40600
H2953       H  0.40776743  0.08886387  0.63646706     0.40200
H2954       H  0.38031928  0.07156644  0.63078488     0.35100
C2955       C  0.50220714  0.03843934  0.75583656    -0.26700
C2956       C  0.49575660  0.02466396  0.73264464    -0.14700
C2957       C  0.49169106  0.99727434  0.73428893     0.35900
C2958       C  0.49243330  0.98472130  0.75892353    -0.26100
C2959       C  0.49707011  0.99893200  0.78223440    -0.15400
C2960       C  0.50299710  0.02594678  0.78045326     0.37000
N2961       N  0.50954395  0.04072626  0.80364775    -0.89600
H2962       H  0.50599156  0.05936293  0.75501281     0.18100
H2963       H  0.48823190  0.96386486  0.75985187     0.18100
N2964       N  0.48634887  0.98210769  0.71118300    -0.88600
H2965       H  0.51308051  0.06042112  0.79901425     0.35500
H2966       H  0.52718898  0.03320235  0.81100023     0.40600
H2967       H  0.46818298  0.97283574  0.71362631     0.40200
H2968       H  0.50073536  0.96753715  0.70966356     0.35100
C2969       C  0.59810050  0.06915080  0.62652842    -0.26700
C2970       C  0.59723619  0.05694084  0.60176473    -0.14700
C2971       C  0.57350764  0.04618474  0.59267622     0.35900
C2972       C  0.55105984  0.04783283  0.60840493    -0.26100
C2973       C  0.55179392  0.06002821  0.63326316    -0.15400
C2974       C  0.57563973  0.07077291  0.64243675     0.37000
N2975       N  0.57714991  0.08277523  0.66796393    -0.89600
H2976       H  0.61652796  0.07711855  0.63365850     0.18100
H2977       H  0.53288530  0.03958111  0.60095427     0.18100
N2978       N  0.57233913  0.03268358  0.56798478    -0.88600
H2979       H  0.59609438  0.08987695  0.67156216     0.35500
H2980       H  0.57367554  0.06809066  0.68189290     0.40600
H2981       H  0.55810415  0.04183102  0.55633783     0.40200
H2982       H  0.56623382  0.01337728  0.57148636     0.35100
C2983       C  0.34445916  0.90472461  0.46045936    -0.26700
C2984       C  0.32660806  0.92427914  0.45274882    -0.14700
C2985       C  0.30232408  0.91697544  0.44172306     0.35900
C2986       C  0.29694592  0.89021254  0.43750445    -0.26100
C2987       C  0.31536277  0.87058414  0.44410087    -0.15400
C2988       C  0.33917878  0.87809857  0.45616680     0.37000
N2989       N  0.35849524  0.85897164  0.46343157    -0.89600
H2990       H  0.36318281  0.91014803  0.46907570     0.18100
H2991       H  0.27840848  0.88477260  0.42855796     0.18100
N2992       N  0.28327282  0.93666979  0.43489434    -0.88600
H2993       H  0.36212528  0.86083827  0.48357021     0.35500
H2994       H  0.37589018  0.86329548  0.45342312     0.40600
H2995       H  0.27742853  0.94591952  0.45227966     0.40200
H2996       H  0.26644435  0.92799268  0.42688841     0.35100
C2997       C  0.26372231  0.01695779  0.48820512    -0.26700
C2998       C  0.28729098  0.01487836  0.50264170    -0.14700
C2999       C  0.28586829  0.01519614  0.53042615     0.35900
C3000       C  0.26131178  0.01550748  0.54277291    -0.26100
C3001       C  0.23778019  0.01531997  0.52822118    -0.15400
C3002       C  0.23909965  0.01732219  0.50060780     0.37000
N3003       N  0.21550922  0.01932380  0.48516776    -0.89600
H3004       H  0.26431206  0.01739899  0.46694149     0.18100
H3005       H  0.26074584  0.01464880  0.56403385     0.18100
N3006       N  0.30879378  0.01502202  0.54676585    -0.88600
H3007       H  0.21992263  0.02028023  0.46513606     0.35500
H3008       H  0.20649861  0.03713583  0.49000952     0.40600
H3009       H  0.32094063  0.03064513  0.54126438     0.40200
H3010       H  0.31874011  0.99726788  0.54419086     0.35100
C3011       C  0.44538000  0.22579274  0.40643648    -0.26700
C3012       C  0.45196107  0.20058322  0.41502729    -0.14700
C3013       C  0.45544781  0.18018847  0.39655806     0.35900
C3014       C  0.45177425  0.18538142  0.36976669    -0.26100
C3015       C  0.44399991  0.21034848  0.36101293    -0.15400
C3016       C  0.44140362  0.23098288  0.37976394     0.37000
N3017       N  0.43479624  0.25739208  0.37260204    -0.89600
H3018       H  0.44301831  0.24152564  0.42060963     0.18100
H3019       H  0.45372050  0.16940918  0.35582462     0.18100
N3020       N  0.46155378  0.15397259  0.40518840    -0.88600
H3021       H  0.41558077  0.25789270  0.36541619     0.35500
H3022       H  0.44789025  0.26386796  0.35818347     0.40600
H3023       H  0.46354286  0.14128925  0.38914510     0.40200
H3024       H  0.44553889  0.14711145  0.41605376     0.35100
C3025       C  0.47971475  0.15370855  0.57953899    -0.26700
C3026       C  0.45805707  0.14971804  0.56307588    -0.14700
C3027       C  0.44035282  0.12904010  0.56856399     0.35900
C3028       C  0.44493453  0.11250264  0.59009808    -0.26100
C3029       C  0.46690465  0.11620615  0.60637023    -0.15400
C3030       C  0.48438207  0.13721772  0.60112984     0.37000
N3031       N  0.50744438  0.14105866  0.61704616    -0.89600
H3032       H  0.49367916  0.16908043  0.57480958     0.18100
H3033       H  0.43145107  0.09648135  0.59391350     0.18100
N3034       N  0.41837652  0.12358638  0.55181455    -0.88600
H3035       H  0.51810331  0.15740046  0.61063125     0.35500
H3036       H  0.51959785  0.12471025  0.61438883     0.40600
H3037       H  0.42538170  0.11969357  0.53288401     0.40200
H3038       H  0.40654379  0.14030246  0.55103957     0.35100
C3039       C  0.42794222  0.09155334  0.47500276    -0.26700
C3040       C  0.41543148  0.11583083  0.47176651    -0.14700
C3041       C  0.38872475  0.11638926  0.46403118     0.35900
C3042       C  0.37488865  0.09270323  0.46067371    -0.26100
C3043       C  0.38722885  0.06856624  0.46532257    -0.15400
C3044       C  0.41413350  0.06805343  0.47194992     0.37000
N3045       N  0.42761846  0.04358305  0.47543886    -0.89600
H3046       H  0.44843431  0.09068967  0.48072975     0.18100
H3047       H  0.35430986  0.09322164  0.45523015     0.18100
N3048       N  0.37558649  0.14085351  0.45952250    -0.88600
H3049       H  0.43547521  0.04324505  0.49442731     0.35500
H3050       H  0.44320253  0.04289320  0.46210009     0.40600
H3051       H  0.35938868  0.14181664  0.47211442     0.40200
H3052       H  0.36860710  0.14089367  0.44021034     0.35100
C3053       C  0.62254979  0.97424960  0.35140477    -0.26700
C3054       C  0.60514402  0.96087541  0.33456462    -0.14700
C3055       C  0.61536671  0.94448942  0.31482098     0.35900
C3056       C  0.64257192  0.94152077  0.31247426    -0.26100
C3057       C  0.66003302  0.95436072  0.32972421    -0.15400
C3058       C  0.64976714  0.97104494  0.34928780     0.37000
N3059       N  0.66673121  0.98466903  0.36718505    -0.89600
H3060       H  0.61503640  0.98682383  0.36685191     0.18100
H3061       H  0.64993784  0.92856275  0.29728458     0.18100
N3062       N  0.59829617  0.93085718  0.29703487    -0.88600
H3063       H  0.66175020  0.97903618  0.38629228     0.35500
H3064       H  0.66315278  0.00481423  0.36535731     0.40600
H3065       H  0.60201207  0.91072587  0.29874568     0.40200
H3066       H  0.60304873  0.93659930  0.27790400     0.35100
C3067       C  0.50987561  0.03136851  0.28083538    -0.26700
C3068       C  0.51720240  0.00479440  0.28198381    -0.14700
C3069       C  0.52336620  0.99160356  0.25828036     0.35900
C3070       C  0.52244610  0.00528536  0.23428870    -0.26100
C3071       C  0.51593442  0.03209222  0.23307462    -0.15400
C3072       C  0.50883496  0.04508447  0.25674239     0.37000
N3073       N  0.50094347  0.07220425  0.25646392    -0.89600
H3074       H  0.50493243  0.04152846  0.29887625     0.18100
H3075       H  0.52791810  0.99502471  0.21647439     0.18100
N3076       N  0.53166218  0.96459111  0.25863571    -0.88600
H3077       H  0.49721117  0.07891860  0.27551888     0.35500
H3078       H  0.48310305  0.07328317  0.24632560     0.40600
H3079       H  0.54976420  0.96381492  0.26834137     0.40200
H3080       H  0.53496237  0.95768145  0.23957486     0.35100
C3081       C  0.45596501  0.95855142  0.40580783    -0.26700
C3082       C  0.45629944  0.96944379  0.38052049    -0.14700
C3083       C  0.43477812  0.98401656  0.37148541     0.35900
C3084       C  0.41332409  0.98799007  0.38828849    -0.26100
C3085       C  0.41332068  0.97826533  0.41424944    -0.15400
C3086       C  0.43470554  0.96277335  0.42286205     0.37000
N3087       N  0.43507867  0.95178316  0.44887382    -0.89600
H3088       H  0.47289105  0.94756485  0.41261428     0.18100
H3089       H  0.39698635  0.99969315  0.38131409     0.18100
N3090       N  0.43503276  0.99510170  0.34551342    -0.88600
H3091       H  0.45258653  0.94157603  0.45221136     0.35500
H3092       H  0.41995661  0.93790923  0.44990594     0.40600
H3093       H  0.44994987  0.00921498  0.34487116     0.40200
H3094       H  0.41745162  0.00501476  0.34172739     0.35100
C3095       C  0.55630005  0.85634034  0.62947964    -0.26700
C3096       C  0.56845797  0.84090479  0.61002559    -0.14700
C3097       C  0.58473593  0.81987700  0.61766847     0.35900
C3098       C  0.58942993  0.81560458  0.64450373    -0.26100
C3099       C  0.57817233  0.83182812  0.66392033    -0.15400
C3100       C  0.56104075  0.85208873  0.65618166     0.37000
N3101       N  0.54861187  0.86866994  0.67521758    -0.89600
H3102       H  0.54356803  0.87250007  0.62402064     0.18100
H3103       H  0.60251219  0.79981359  0.65016188     0.18100
N3104       N  0.59656552  0.80306821  0.59830529    -0.88600
H3105       H  0.52828165  0.86713701  0.67271141     0.35500
H3106       H  0.55406146  0.88810266  0.67136202     0.40600
H3107       H  0.58141155  0.79295579  0.58877545     0.40200
H3108       H  0.60835361  0.78883258  0.60726541     0.35100
C3109       C  0.54230161  0.92496279  0.46593389    -0.26700
C3110       C  0.54965241  0.89840037  0.46490926    -0.14700
C3111       C  0.55352242  0.88633947  0.44040503     0.35900
C3112       C  0.54986074  0.90102030  0.41730881    -0.26100
C3113       C  0.54245758  0.92770138  0.41830105    -0.15400
C3114       C  0.53847988  0.93970731  0.44300893     0.37000
N3115       N  0.52996933  0.96659063  0.44485429    -0.89600
H3116       H  0.53932021  0.93428177  0.48485229     0.18100
H3117       H  0.55275316  0.89143886  0.39851769     0.18100
N3118       N  0.56028093  0.85907356  0.43887292    -0.88600
H3119       H  0.52853454  0.97247676  0.46448438     0.35500
H3120       H  0.51098149  0.96761032  0.43707956     0.40600
H3121       H  0.57790965  0.85746073  0.42849141     0.40200
H3122       H  0.54566284  0.84945096  0.42808352     0.35100
C3123       C  0.62671150  0.93077807  0.53560273    -0.26700
C3124       C  0.60501344  0.92666477  0.55214750    -0.14700
C3125       C  0.60061814  0.94404654  0.57321000     0.35900
C3126       C  0.61744623  0.96558537  0.57687311    -0.26100
C3127       C  0.63835988  0.97031512  0.55957890    -0.15400
C3128       C  0.64328301  0.95250065  0.53884708     0.37000
N3129       N  0.66441070  0.95608941  0.52043777    -0.89600
H3130       H  0.63036995  0.91745830  0.51938799     0.18100
H3131       H  0.61326963  0.97949668  0.59246617     0.18100
N3132       N  0.57910536  0.93998525  0.59084287    -0.88600
H3133       H  0.67678000  0.93976988  0.52198385     0.35500
H3134       H  0.67594451  0.97236799  0.52522347     0.40600
H3135       H  0.56720916  0.95671875  0.59033664     0.40200
H3136       H  0.58669826  0.93818197  0.60985242     0.35100
C3137       C  0.30257229  0.38955234  0.59082133    -0.26700
C3138       C  0.32046554  0.37059424  0.58143090    -0.14700
C3139       C  0.34204683  0.37915274  0.56608847     0.35900
C3140       C  0.34541994  0.40594171  0.56118488    -0.26100
C3141       C  0.32811880  0.42476096  0.57153424    -0.15400
C3142       C  0.30616290  0.41644475  0.58609128     0.37000
N3143       N  0.28762082  0.43527049  0.59606865    -0.89600
H3144       H  0.28579760  0.38352881  0.60240777     0.18100
H3145       H  0.36239597  0.41213720  0.54994609     0.18100
N3146       N  0.36118277  0.36144985  0.55553962    -0.88600
H3147       H  0.27272959  0.42590967  0.60666298     0.35500
H3148       H  0.27858679  0.44422554  0.57993880     0.40600
H3149       H  0.35165847  0.34769147  0.54360189     0.40200
H3150       H  0.37072800  0.35191241  0.57101518     0.35100
C3151       C  0.62469949  0.47747873  0.67923595    -0.26700
C3152       C  0.60521910  0.46246040  0.69190464    -0.14700
C3153       C  0.61283852  0.44308466  0.71016039     0.35900
C3154       C  0.63963793  0.43815177  0.71406653    -0.26100
C3155       C  0.65907335  0.45221138  0.70027654    -0.15400
C3156       C  0.65141133  0.47251869  0.68320871     0.37000
N3157       N  0.67055963  0.48801236  0.66962063    -0.89600
H3158       H  0.61929973  0.49271913  0.66539713     0.18100
H3159       H  0.64526169  0.42266572  0.72752681     0.18100
N3160       N  0.59350007  0.42824128  0.72440814    -0.88600
H3161       H  0.66766322  0.50771056  0.67469377     0.35500
H3162       H  0.66720956  0.48605830  0.64944166     0.40600
H3163       H  0.58368728  0.44131162  0.73683566     0.40200
H3164       H  0.60246542  0.41430837  0.73654468     0.35100
C3165       C  0.43873158  0.46723665  0.63977582    -0.26700
C3166       C  0.46101714  0.48182053  0.63257744    -0.14700
C3167       C  0.45992117  0.49789551  0.60985110     0.35900
C3168       C  0.43684472  0.49918129  0.59510880    -0.26100
C3169       C  0.41455942  0.48520599  0.60269818    -0.15400
C3170       C  0.41534616  0.46897245  0.62511894     0.37000
N3171       N  0.39246209  0.45430998  0.63277278    -0.89600
H3172       H  0.43946836  0.45469022  0.65694514     0.18100
H3173       H  0.43611964  0.51185741  0.57800243     0.18100
N3174       N  0.48219283  0.51290818  0.60140070    -0.88600
H3175       H  0.39629764  0.44332358  0.64969803     0.35500
H3176       H  0.38837558  0.44083127  0.61779424     0.40600
H3177       H  0.47682954  0.53273708  0.60110174     0.40200
H3178       H  0.48679313  0.50732246  0.58218518     0.35100
C3179       C  0.59374151  0.33326605  0.40457774    -0.26700
C3180       C  0.56861204  0.34120619  0.41252264    -0.14700
C3181       C  0.54860308  0.34413850  0.39327076     0.35900
C3182       C  0.55467408  0.34037059  0.36660351    -0.26100
C3183       C  0.57990773  0.33284999  0.35882633    -0.15400
C3184       C  0.59956869  0.32900025  0.37815571     0.37000
N3185       N  0.62601221  0.32199603  0.37154078    -0.89600
H3186       H  0.60934321  0.33106448  0.41891079     0.18100
H3187       H  0.53955679  0.34297473  0.35181949     0.18100
N3188       N  0.52223672  0.35095382  0.40071591    -0.88600
H3189       H  0.63327025  0.33560147  0.35797398     0.35500
H3190       H  0.62608058  0.30326749  0.36314796     0.40600
H3191       H  0.51469856  0.33528331  0.41164501     0.40200
H3192       H  0.51020039  0.35280957  0.38415974     0.35100
C3193       C  0.49684040  0.29492665  0.51231371    -0.26700
C3194       C  0.52256404  0.29622165  0.50268545    -0.14700
C3195       C  0.53580397  0.27272950  0.49604913     0.35900
C3196       C  0.52259412  0.24862529  0.49809574    -0.26100
C3197       C  0.49630079  0.24731865  0.50631325    -0.15400
C3198       C  0.48369344  0.27070681  0.51469436     0.37000
N3199       N  0.45752407  0.26994497  0.52523098    -0.89600
H3200       H  0.48694808  0.31291415  0.51793837     0.18100
H3201       H  0.53258516  0.23090517  0.49186685     0.18100
N3202       N  0.56220260  0.27347473  0.48601006    -0.88600
H3203       H  0.45106459  0.28884865  0.53002798     0.35500
H3204       H  0.45832265  0.25942386  0.54285028     0.40600
H3205       H  0.56166093  0.28302426  0.46783384     0.40200
H3206       H  0.56919224  0.25449387  0.48241921     0.35100
C3207       C  0.53867033  0.42400503  0.55608521    -0.26700
C3208       C  0.55123430  0.39943036  0.55755418    -0.14700
C3209       C  0.56227307  0.39127608  0.58161424     0.35900
C3210       C  0.56011380  0.40780195  0.60373052    -0.26100
C3211       C  0.54768078  0.43243235  0.60199499    -0.15400
C3212       C  0.53711574  0.44060525  0.57789166     0.37000
N3213       N  0.52380035  0.46529008  0.57571583    -0.89600
H3214       H  0.53004482  0.43058148  0.53776402     0.18100
H3215       H  0.56788354  0.40135675  0.62248011     0.18100
N3216       N  0.57501051  0.36617073  0.58367458    -0.88600
H3217       H  0.50454537  0.46162275  0.56953809     0.35500
H3218       H  0.53313750  0.47632364  0.56113706     0.40600
H3219       H  0.56079265  0.35169518  0.58038727     0.40200
H3220       H  0.58211322  0.36324983  0.60273455     0.35100
C3221       C  0.67168039  0.63959362  0.46402843    -0.26700
C3222       C  0.68821792  0.62072959  0.45254340    -0.14700
C3223       C  0.70974728  0.62887284  0.43734827     0.35900
C3224       C  0.71335943  0.65573915  0.43271100    -0.26100
C3225       C  0.69581734  0.67466349  0.44281163    -0.15400
C3226       C  0.67497547  0.66643023  0.45912214     0.37000
N3227       N  0.65687116  0.68503174  0.47024489    -0.89600
H3228       H  0.65515532  0.63332928  0.47586839     0.18100
H3229       H  0.72974231  0.66177142  0.42057817     0.18100
N3230       N  0.72771245  0.60993333  0.42657131    -0.88600
H3231       H  0.64412766  0.67577876  0.48341489     0.35500
H3232       H  0.64506552  0.69198077  0.45493329     0.40600
H3233       H  0.73714627  0.60069147  0.44230828     0.40200
H3234       H  0.74237002  0.61924820  0.41561875     0.35100
C3235       C  0.60418493  0.47771754  0.47658374    -0.26700
C3236       C  0.62930966  0.47621175  0.46519810    -0.14700
C3237       C  0.63858586  0.45173093  0.45609267     0.35900
C3238       C  0.62283705  0.42938069  0.45903685    -0.26100
C3239       C  0.59786063  0.43094789  0.47068387    -0.15400
C3240       C  0.58848263  0.45534723  0.47966673     0.37000
N3241       N  0.56367827  0.45712581  0.49301099    -0.89600
H3242       H  0.59685659  0.49647103  0.48352029     0.18100
H3243       H  0.63029923  0.41054915  0.45246787     0.18100
N3244       N  0.66415025  0.44874172  0.44479600    -0.88600
H3245       H  0.55960697  0.47658354  0.49821787     0.35500
H3246       H  0.56553481  0.44672838  0.51060324     0.40600
H3247       H  0.67807814  0.45583944  0.45815274     0.40200
H3248       H  0.66508270  0.45991282  0.42761421     0.35100
C3249       C  0.38879020  0.57375489  0.33911637    -0.26700
C3250       C  0.40782564  0.59087606  0.32856624    -0.14700
C3251       C  0.39941506  0.61146859  0.31204845     0.35900
C3252       C  0.37249514  0.61472622  0.30680713    -0.26100
C3253       C  0.35351629  0.59802111  0.31800273    -0.15400
C3254       C  0.36189095  0.57703056  0.33403347     0.37000
N3255       N  0.34312946  0.55907721  0.34516071    -0.89600
H3256       H  0.39479272  0.55775272  0.35177846     0.18100
H3257       H  0.36640434  0.63097947  0.29448570     0.18100
N3258       N  0.41795976  0.62934596  0.30076034    -0.88600
H3259       H  0.35248584  0.54503887  0.35687244     0.35500
H3260       H  0.33435052  0.54884709  0.32963166     0.40600
H3261       H  0.41310593  0.64834768  0.30688064     0.40200
H3262       H  0.41596876  0.62853197  0.28032903     0.35100
C3263       C  0.55148967  0.56058276  0.41331056    -0.26700
C3264       C  0.55309944  0.57169173  0.38804666    -0.14700
C3265       C  0.57776191  0.58018516  0.37872018     0.35900
C3266       C  0.60026696  0.57668701  0.39460960    -0.26100
C3267       C  0.59855476  0.56526147  0.41976408    -0.15400
C3268       C  0.57376494  0.55743313  0.42928530     0.37000
N3269       N  0.57137965  0.54508195  0.45457991    -0.89600
H3270       H  0.53256803  0.55436786  0.42080065     0.18100
H3271       H  0.61931606  0.58261083  0.38720983     0.18100
N3272       N  0.58001548  0.59166614  0.35303967    -0.88600
H3273       H  0.55217078  0.53849722  0.45764892     0.35500
H3274       H  0.57482961  0.55947302  0.46883350     0.40600
H3275       H  0.57501609  0.57720661  0.33930673     0.40200
H3276       H  0.59949155  0.59693836  0.34922068     0.35100
C3277       C  0.45554455  0.68887372  0.62885858    -0.26700
C3278       C  0.44086637  0.70357994  0.61062474    -0.14700
C3279       C  0.42321452  0.72277961  0.61985516     0.35900
C3280       C  0.42062400  0.72665262  0.64704655    -0.26100
C3281       C  0.43516567  0.71172286  0.66533580    -0.15400
C3282       C  0.45280288  0.69250150  0.65584027     0.37000
N3283       N  0.46827987  0.67627287  0.67284337    -0.89600
H3284       H  0.46902462  0.67381991  0.62218074     0.18100
H3285       H  0.40680034  0.74127870  0.65392717     0.18100
N3286       N  0.40800489  0.73826157  0.60176900    -0.88600
H3287       H  0.45578982  0.66442724  0.68400456     0.35500
H3288       H  0.47946332  0.68830929  0.68520170     0.40600
H3289       H  0.42108435  0.75005155  0.59120857     0.40200
H3290       H  0.39550737  0.75104849  0.61185904     0.35100
C3291       C  0.47468702  0.77430966  0.52596385    -0.26700
C3292       C  0.48881285  0.75087013  0.52209900    -0.14700
C3293       C  0.51583274  0.75231869  0.51663298     0.35900
C3294       C  0.52842865  0.77681394  0.51642087    -0.26100
C3295       C  0.51468017  0.80025038  0.52180959    -0.15400
C3296       C  0.48723569  0.79894822  0.52585774     0.37000
N3297       N  0.47222502  0.82241842  0.53044826    -0.89600
H3298       H  0.45381388  0.77340026  0.52997493     0.18100
H3299       H  0.54939353  0.77723455  0.51284268     0.18100
N3300       N  0.53065296  0.72899426  0.51135668    -0.88600
H3301       H  0.45249388  0.81787817  0.53388711     0.35500
H3302       H  0.47268915  0.83349992  0.51316777     0.40600
H3303       H  0.54583749  0.72781455  0.52515753     0.40200
H3304       H  0.53910384  0.73087476  0.49274314     0.35100
C3305       C  0.45919819  0.66501220  0.44000845    -0.26700
C3306       C  0.45622287  0.65161641  0.46374274    -0.14700
C3307       C  0.45633657  0.62398721  0.46408794     0.35900
C3308       C  0.46038765  0.61003264  0.44081288    -0.26100
C3309       C  0.46457960  0.62318698  0.41695792    -0.15400
C3310       C  0.46340049  0.65110060  0.41646915     0.37000
N3311       N  0.46668340  0.66527953  0.39227977    -0.89600
H3312       H  0.45898961  0.68630560  0.43998129     0.18100
H3313       H  0.46092651  0.58876446  0.44165759     0.18100
N3314       N  0.45241004  0.61003565  0.48822850    -0.88600
H3315       H  0.46604238  0.68555070  0.39557869     0.35500
H3316       H  0.45060566  0.66080102  0.38027518     0.40600
H3317       H  0.46878548  0.59808502  0.49149684     0.40200
H3318       H  0.43599713  0.59787235  0.48599422     0.35100
C3319       C  0.39093730  0.61016337  0.52964669    -0.26700
C3320       C  0.40836864  0.61804067  0.54947832    -0.14700
C3321       C  0.40932171  0.60408635  0.57333864     0.35900
C3322       C  0.39311290  0.58194919  0.57656788    -0.26100
C3323       C  0.37639457  0.57349596  0.55627828    -0.15400
C3324       C  0.37483551  0.58815630  0.53271541     0.37000
N3325       N  0.35726601  0.58138571  0.51156643    -0.89600
H3326       H  0.38991835  0.62119203  0.51144922     0.18100
H3327       H  0.39440944  0.57053454  0.59449537     0.18100
N3328       N  0.42621008  0.61272744  0.59429777    -0.88600
H3329       H  0.34495390  0.59751107  0.50837508     0.35500
H3330       H  0.34477798  0.56596735  0.51668964     0.40600
H3331       H  0.44560780  0.60986642  0.58826279     0.40200
H3332       H  0.42357603  0.60098712  0.61093761     0.35100
C3333       C  0.66910385  0.40415172  0.06185589    -0.26700
C3334       C  0.68606662  0.42161125  0.07501924    -0.14700
C3335       C  0.70660712  0.41151802  0.09051066     0.35900
C3336       C  0.70907954  0.38428699  0.09335086    -0.26100
C3337       C  0.69146654  0.36667185  0.08115608    -0.15400
C3338       C  0.67131562  0.37681571  0.06498275     0.37000
N3339       N  0.65298429  0.35961252  0.05204293    -0.89600
H3340       H  0.65325344  0.41187734  0.04992684     0.18100
H3341       H  0.72475570  0.37689767  0.10569504     0.18100
N3342       N  0.72483991  0.42887793  0.10340886    -0.88600
H3343       H  0.64068694  0.37024141  0.03947887     0.35500
H3344       H  0.64077331  0.35167606  0.06650357     0.40600
H3345       H  0.73541615  0.43870304  0.08880635     0.40200
H3346       H  0.73853539  0.41825449  0.11442738     0.35100
C3347       C  0.59235190  0.72612444  0.14499325    -0.26700
C3348       C  0.57720579  0.71258438  0.16372378    -0.14700
C3349       C  0.55688605  0.69593515  0.15516743     0.35900
C3350       C  0.55303707  0.69195646  0.12829742    -0.26100
C3351       C  0.56923518  0.70413418  0.10948823    -0.15400
C3352       C  0.58854896  0.72218227  0.11795467     0.37000
N3353       N  0.60454316  0.73604974  0.09927782    -0.89600
H3354       H  0.60781985  0.73927657  0.15143004     0.18100
H3355       H  0.53773843  0.67840345  0.12229951     0.18100
N3356       N  0.54017035  0.68283442  0.17360725    -0.88600
H3357       H  0.61819841  0.74806307  0.10886648     0.35500
H3358       H  0.59218281  0.74858215  0.08868768     0.40600
H3359       H  0.54177625  0.66258962  0.17048303     0.40200
H3360       H  0.52077481  0.68832218  0.16966867     0.35100
C3361       C  0.53455236  0.76524254  0.01782271    -0.26700
C3362       C  0.52049154  0.74142781  0.01841280    -0.14700
C3363       C  0.49278611  0.74236714  0.01762664     0.35900
C3364       C  0.47996425  0.76693410  0.01856240    -0.26100
C3365       C  0.49412806  0.79076230  0.02000855    -0.15400
C3366       C  0.52190127  0.78960692  0.01870055     0.37000
N3367       N  0.53803407  0.81267383  0.01832506    -0.89600
H3368       H  0.55583357  0.76510507  0.01787559     0.18100
H3369       H  0.45869873  0.76734013  0.01888888     0.18100
N3370       N  0.47773815  0.71849791  0.01615771    -0.88600
H3371       H  0.53610464  0.82259314  0.03618625     0.35500
H3372       H  0.53191291  0.82477140  0.00289632     0.40600
H3373       H  0.48205706  0.70955764  0.99817317     0.40200
H3374       H  0.45762104  0.72261180  0.01590508     0.35100
C3375       C  0.60152465  0.59918933  0.07784644    -0.26700
C3376       C  0.60949444  0.61634689  0.05777884    -0.14700
C3377       C  0.63375632  0.61175997  0.04496395     0.35900
C3378       C  0.64867662  0.58953656  0.05160282    -0.26100
C3379       C  0.64010305  0.57181993  0.07075002    -0.15400
C3380       C  0.61653429  0.57705052  0.08460122     0.37000
N3381       N  0.60643415  0.55970823  0.10449352    -0.89600
H3382       H  0.58320175  0.60270723  0.08807163     0.18100
H3383       H  0.66642930  0.58516953  0.04070588     0.18100
N3384       N  0.64260839  0.62887528  0.02431529    -0.88600
H3385       H  0.60557919  0.57031844  0.12206891     0.35500
H3386       H  0.61901475  0.54393350  0.10797144     0.40600
H3387       H  0.62950204  0.62691739  0.00859617     0.40200
H3388       H  0.66099457  0.62298319  0.01734487     0.35100
C3389       C  0.40063918  0.42947619  0.20623232    -0.26700
C3390       C  0.40970727  0.45462035  0.19949574    -0.14700
C3391       C  0.39143596  0.47559786  0.19753518     0.35900
C3392       C  0.36448669  0.47041187  0.19982583    -0.26100
C3393       C  0.35551552  0.44510450  0.20533851    -0.15400
C3394       C  0.37370633  0.42462061  0.20933137     0.37000
N3395       N  0.36478850  0.39859596  0.21532477    -0.89600
H3396       H  0.41431662  0.41326403  0.20797065     0.18100
H3397       H  0.35040288  0.48621353  0.19754593     0.18100
N3398       N  0.40025178  0.50207917  0.19308890    -0.88600
H3399       H  0.37344517  0.39283630  0.23304535     0.35500
H3400       H  0.37144280  0.38594344  0.20057672     0.40600
H3401       H  0.41127329  0.50775654  0.20949275     0.40200
H3402       H  0.38433052  0.51500081  0.19197621     0.35100
C3403       C  0.49600918  0.53519744  0.23844953    -0.26700
C3404       C  0.49697773  0.50762281  0.23971684    -0.14700
C3405       C  0.49848127  0.49570151  0.26496812     0.35900
C3406       C  0.49814613  0.51128502  0.28766376    -0.26100
C3407       C  0.49631441  0.53876850  0.28640574    -0.15400
C3408       C  0.49564742  0.55078029  0.26120131     0.37000
N3409       N  0.49352104  0.57863956  0.25782037    -0.89600
H3410       H  0.49486842  0.54488495  0.21953128     0.18100
H3411       H  0.49875805  0.50158794  0.30660543     0.18100
N3412       N  0.49942357  0.46780574  0.26856763    -0.88600
H3413       H  0.51000826  0.58764181  0.26612302     0.35500
H3414       H  0.47651802  0.58522246  0.26725302     0.40600
H3415       H  0.51630188  0.46046704  0.25951209     0.40200
H3416       H  0.48266134  0.45936584  0.26018938     0.35100
C3417       C  0.57828174  0.46624730  0.15092011    -0.26700
C3418       C  0.55409698  0.47213032  0.13917609    -0.14700
C3419       C  0.55360346  0.48040723  0.11266223     0.35900
C3420       C  0.57712297  0.48398366  0.09888866    -0.26100
C3421       C  0.60142454  0.47958164  0.11099964    -0.15400
C3422       C  0.60192763  0.47004067  0.13713734     0.37000
N3423       N  0.62635987  0.46402066  0.14974567    -0.89600
H3424       H  0.57890616  0.45937816  0.17105723     0.18100
H3425       H  0.57629861  0.49095392  0.07879082     0.18100
N3426       N  0.52914161  0.48495669  0.09946756    -0.88600
H3427       H  0.62597606  0.44424969  0.15530620     0.35500
H3428       H  0.62776656  0.47540786  0.16679711     0.40600
H3429       H  0.52823182  0.47254645  0.08310913     0.40200
H3430       H  0.52899905  0.50437361  0.09276774     0.35100
C3431       C  0.45937300  0.35945842  0.89797651    -0.26700
C3432       C  0.44543436  0.34361926  0.91585126    -0.14700
C3433       C  0.42893599  0.32356790  0.90622059     0.35900
C3434       C  0.42573355  0.32072310  0.87902783    -0.26100
C3435       C  0.43880704  0.33730245  0.86116199    -0.15400
C3436       C  0.45624283  0.35647352  0.87083989     0.37000
N3437       N  0.47073576  0.37304987  0.85332845    -0.89600
H3438       H  0.47235844  0.37481401  0.90502167     0.18100
H3439       H  0.41243077  0.30572365  0.87184740     0.18100
N3440       N  0.41542368  0.30623896  0.92395148    -0.88600
H3441       H  0.49075087  0.37038356  0.85708906     0.35500
H3442       H  0.46603102  0.39258881  0.85759729     0.40600
H3443       H  0.42964794  0.29514196  0.93377738     0.40200
H3444       H  0.40370748  0.29288065  0.91360496     0.35100
C3445       C  0.47685488  0.27088915  0.00497040    -0.26700
C3446       C  0.49154065  0.29434963  0.00339412    -0.14700
C3447       C  0.51916396  0.29251432  0.00222348     0.35900
C3448       C  0.53127309  0.26775112  0.00106852    -0.26100
C3449       C  0.51652560  0.24431923  0.00099063    -0.15400
C3450       C  0.48898318  0.24599518  0.00393458     0.37000
N3451       N  0.47334077  0.22252985  0.00559337    -0.89600
H3452       H  0.45565042  0.27186156  0.00630008     0.18100
H3453       H  0.55245963  0.26702917  0.99925173     0.18100
N3454       N  0.53514504  0.31568446  0.00179408    -0.88600
H3455       H  0.45342210  0.22718579  0.00736628     0.35500
H3456       H  0.47864003  0.21283124  0.02290827     0.40600
H3457       H  0.54635006  0.31540420  0.98459726     0.40200
H3458       H  0.54801397  0.31490914  0.01780133     0.35100
C3459       C  0.48336737  0.38962801  0.07748231    -0.26700
C3460       C  0.45830100  0.38883912  0.06605996    -0.14700
C3461       C  0.43746595  0.40280986  0.07787865     0.35900
C3462       C  0.44244298  0.41785471  0.10062268    -0.26100
C3463       C  0.46774971  0.41908088  0.11152646    -0.15400
C3464       C  0.48828958  0.40450175  0.09996612     0.37000
N3465       N  0.51466540  0.40556831  0.10979299    -0.89600
H3466       H  0.49954804  0.37932778  0.06824659     0.18100
H3467       H  0.42670564  0.42899919  0.10961323     0.18100
N3468       N  0.41176855  0.40266779  0.06612953    -0.88600
H3469       H  0.51490315  0.39831699  0.12898417     0.35500
H3470       H  0.52078253  0.42518177  0.11006591     0.40600
H3471       H  0.41317964  0.41199892  0.04789312     0.40200
H3472       H  0.39869305  0.41381846  0.07736824     0.35100
C3473       C  0.30799000  0.62875895  0.94415213    -0.26700
C3474       C  0.33193392  0.62120707  0.95521931    -0.14700
C3475       C  0.35001423  0.64065923  0.96325546     0.35900
C3476       C  0.34426261  0.66725594  0.95910912    -0.26100
C3477       C  0.32066307  0.67493213  0.94710415    -0.15400
C3478       C  0.30185235  0.65533924  0.94041459     0.37000
N3479       N  0.27670454  0.66227828  0.92952806    -0.89600
H3480       H  0.29390655  0.61379875  0.93849826     0.18100
H3481       H  0.35881766  0.68184793  0.96449764     0.18100
N3482       N  0.37479038  0.63348977  0.97452984    -0.88600
H3483       H  0.26623118  0.67216981  0.94416139     0.35500
H3484       H  0.26577289  0.64550034  0.92488084     0.40600
H3485       H  0.37623349  0.64236312  0.99300956     0.40200
H3486       H  0.38969367  0.64113169  0.96265863     0.35100
C3487       C  0.39998880  0.46631460  0.94991110    -0.26700
C3488       C  0.37780308  0.47139403  0.96539247    -0.14700
C3489       C  0.37092597  0.45389713  0.98552969     0.35900
C3490       C  0.38638699  0.43160026  0.99009892    -0.26100
C3491       C  0.40928275  0.42692396  0.97540949    -0.15400
C3492       C  0.41592842  0.44423563  0.95476214     0.37000
N3493       N  0.43881229  0.43946364  0.93896000    -0.89600
H3494       H  0.40555758  0.48027909  0.93483484     0.18100
H3495       H  0.38094830  0.41837711  0.00586452     0.18100
N3496       N  0.34858483  0.45913501  0.00178157    -0.88600
H3497       H  0.44104708  0.45423447  0.92486794     0.35500
H3498       H  0.43569927  0.42194662  0.92865794     0.40600
H3499       H  0.35501559  0.46040848  0.02125976     0.40200
H3500       H  0.33576862  0.44313630  0.00033695     0.35100
C3501       C  0.61544949  0.60715044  0.82133112    -0.26700
C3502       C  0.60679465  0.58208049  0.82891151    -0.14700
C3503       C  0.62559787  0.56185629  0.83250114     0.35900
C3504       C  0.65236904  0.56738236  0.82968727    -0.26100
C3505       C  0.66089334  0.59251528  0.82273234    -0.15400
C3506       C  0.64217522  0.61257112  0.81822468     0.37000
N3507       N  0.64972470  0.63893839  0.81182307    -0.89600
H3508       H  0.60147902  0.62298978  0.81871733     0.18100
H3509       H  0.66658752  0.55184246  0.83282738     0.18100
N3510       N  0.61776033  0.53564768  0.83914546    -0.88600
H3511       H  0.65922112  0.63891396  0.79365162     0.35500
H3512       H  0.66272226  0.64577362  0.82621903     0.40600
H3513       H  0.62671366  0.53060841  0.85694280     0.40200
H3514       H  0.62482290  0.52294218  0.82463389     0.35100
C3515       C  0.51717549  0.50893273  0.78369345    -0.26700
C3516       C  0.51432714  0.53633041  0.78498049    -0.14700
C3517       C  0.50997914  0.55042750  0.76131599     0.35900
C3518       C  0.51134643  0.53716009  0.73705226    -0.26100
C3519       C  0.51590607  0.51001410  0.73581823    -0.15400
C3520       C  0.51805087  0.49562651  0.75955198     0.37000
N3521       N  0.52236978  0.46769170  0.75920629    -0.89600
H3522       H  0.51995751  0.49781896  0.80162213     0.18100
H3523       H  0.50903152  0.54813342  0.71896315     0.18100
N3524       N  0.50482897  0.57819630  0.76179313    -0.88600
H3525       H  0.52259517  0.46006310  0.77827253     0.35500
H3526       H  0.54109869  0.46444202  0.75146923     0.40600
H3527       H  0.48657656  0.58086284  0.77079854     0.40200
H3528       H  0.50295087  0.58558652  0.74271981     0.35100
C3529       C  0.46357199  0.55455509  0.91355709    -0.26700
C3530       C  0.46207620  0.56630117  0.88857581    -0.14700
C3531       C  0.43741472  0.57505115  0.87931865     0.35900
C3532       C  0.41499433  0.57143001  0.89492920    -0.26100
C3533       C  0.41665841  0.55973490  0.91994408    -0.15400
C3534       C  0.44125509  0.55130081  0.92924572     0.37000
N3535       N  0.44355026  0.53843607  0.95417041    -0.89600
H3536       H  0.48226872  0.54765191  0.92102919     0.18100
H3537       H  0.39611085  0.57780315  0.88743859     0.18100
N3538       N  0.43434842  0.58678516  0.85393903    -0.88600
H3539       H  0.45688471  0.54906098  0.96566257     0.35500
H3540       H  0.45135381  0.51969628  0.95102387     0.40600
H3541       H  0.44175656  0.57383885  0.83981627     0.40200
H3542       H  0.44523250  0.60418452  0.85341411     0.35100
C3543       C  0.56004457  0.63795733  0.91794035    -0.26700
C3544       C  0.55212460  0.61147591  0.91926441    -0.14700
C3545       C  0.54844529  0.59964826  0.94404947     0.35900
C3546       C  0.55219992  0.61467879  0.96682214    -0.26100
C3547       C  0.55935071  0.64130381  0.96550461    -0.15400
C3548       C  0.56379321  0.65291525  0.94074934     0.37000
N3549       N  0.57093461  0.68000979  0.93810607    -0.89600
H3550       H  0.56292280  0.64724943  0.89900858     0.18100
H3551       H  0.54895504  0.60565502  0.98582912     0.18100
N3552       N  0.53984629  0.57280110  0.94608213    -0.88600
H3553       H  0.58901106  0.68296915  0.94739563     0.35500
H3554       H  0.55672699  0.69147164  0.94749783     0.40600
H3555       H  0.52079061  0.57183383  0.93848407     0.40200
H3556       H  0.53854981  0.56705003  0.96575749     0.35100
C3557       C  0.08371177  0.72265604  0.40637787    -0.26700
C3558       C  0.06500223  0.70354254  0.41276138    -0.14700
C3559       C  0.05024756  0.69170058  0.39232244     0.35900
C3560       C  0.05558009  0.69804585  0.36615150    -0.26100
C3561       C  0.07527387  0.71611893  0.35963623    -0.15400
C3562       C  0.08896372  0.72917669  0.38028223     0.37000
N3563       N  0.10887869  0.74853737  0.37569367    -0.89600
H3564       H  0.09488263  0.73227916  0.42177068     0.18100
H3565       H  0.04452286  0.68820876  0.35081445     0.18100
N3566       N  0.03033794  0.67256241  0.39779693    -0.88600
H3567       H  0.10062478  0.76436650  0.36557547     0.35500
H3568       H  0.12401474  0.74013861  0.36465944     0.40600
H3569       H  0.03534053  0.65508547  0.38822242     0.40200
H3570       H  0.01261314  0.67929555  0.38989038     0.35100
C3571       C  0.01660983  0.79043630  0.51118717    -0.26700
C3572       C  0.98975059  0.79090608  0.50512636    -0.14700
C3573       C  0.97684046  0.76676498  0.49979293     0.35900
C3574       C  0.99115154  0.74328712  0.49965087    -0.26100
C3575       C  0.01836027  0.74288166  0.50441012    -0.15400
C3576       C  0.03100793  0.76702230  0.51086364     0.37000
N3577       N  0.05851908  0.76885808  0.51651451    -0.89600
H3578       H  0.02680320  0.80863636  0.51555974     0.18100
H3579       H  0.98088073  0.72528211  0.49474007     0.18100
N3580       N  0.94953248  0.76540184  0.49308848    -0.88600
H3581       H  0.06918785  0.76322307  0.49992760     0.35500
H3582       H  0.06293805  0.75655632  0.53235474     0.40600
H3583       H  0.94607857  0.77729713  0.47670154     0.40200
H3584       H  0.93846844  0.77215052  0.50898565     0.35100
C3585       C  0.12664572  0.56873675  0.66952185    -0.26700
C3586       C  0.10791577  0.57683711  0.68808458    -0.14700
C3587       C  0.11651227  0.58807038  0.71191145     0.35900
C3588       C  0.14330664  0.59204437  0.71607910    -0.26100
C3589       C  0.16213276  0.58561199  0.69679887    -0.15400
C3590       C  0.15348629  0.57312136  0.67344565     0.37000
N3591       N  0.17113448  0.56521121  0.65304425    -0.89600
H3592       H  0.12031546  0.55977586  0.65124670     0.18100
H3593       H  0.14926208  0.60102445  0.73445452     0.18100
N3594       N  0.09865782  0.59529601  0.73242081    -0.88600
H3595       H  0.18475466  0.55200631  0.66085867     0.35500
H3596       H  0.18087362  0.58181261  0.64586240     0.40600
H3597       H  0.08712483  0.57896767  0.73713317     0.40200
H3598       H  0.08653006  0.61043014  0.72572165     0.35100
C3599       C  0.04498287  0.61447992  0.55396423    -0.26700
C3600       C  0.05532354  0.64005096  0.55604030    -0.14700
C3601       C  0.06378374  0.64939483  0.58068763     0.35900
C3602       C  0.06021958  0.63345902  0.60295816    -0.26100
C3603       C  0.04905531  0.60822574  0.60091047    -0.15400
C3604       C  0.04172963  0.59846598  0.57607379     0.37000
N3605       N  0.03021178  0.57277110  0.57342858    -0.89600
H3606       H  0.03899119  0.60703823  0.53491443     0.18100
H3607       H  0.06601019  0.64083705  0.62208795     0.18100
N3608       N  0.07485318  0.67525864  0.58325620    -0.88600
H3609       H  0.02629288  0.56852188  0.55370524     0.35500
H3610       H  0.01206293  0.57302315  0.58299766     0.40600
H3611       H  0.09314185  0.67508257  0.57395818     0.40200
H3612       H  0.07857003  0.67958942  0.60299932     0.35100
C3613       C  0.20466300  0.41647879  0.41972899    -0.26700
C3614       C  0.19670667  0.42533602  0.44459209    -0.14700
C3615       C  0.19474668  0.40707550  0.46554748     0.35900
C3616       C  0.19820420  0.38023749  0.46051439    -0.26100
C3617       C  0.20476786  0.37137552  0.43541747    -0.15400
C3618       C  0.20872681  0.38961159  0.41490554     0.37000
N3619       N  0.21574535  0.38068407  0.38903186    -0.89600
H3620       H  0.20643464  0.43033071  0.40367638     0.18100
H3621       H  0.19592185  0.36612291  0.47628851     0.18100
N3622       N  0.18906142  0.41575225  0.49182984    -0.88600
H3623       H  0.21801162  0.39660262  0.37625572     0.35500
H3624       H  0.20007277  0.36952438  0.38177783     0.40600
H3625       H  0.20487462  0.42730541  0.49808683     0.40200
H3626       H  0.18801340  0.39980446  0.50472948     0.35100
C3627       C  0.23297933  0.51367013  0.52262767    -0.26700
C3628       C  0.23341045  0.51561021  0.49509571    -0.14700
C3629       C  0.25795422  0.51904797  0.48244618     0.35900
C3630       C  0.28124567  0.51857676  0.49717265    -0.26100
C3631       C  0.28086397  0.51493679  0.52446278    -0.15400
C3632       C  0.25633566  0.51338440  0.53736371     0.37000
N3633       N  0.25493904  0.51031791  0.56530020    -0.89600
H3634       H  0.21445200  0.51140681  0.53282548     0.18100
H3635       H  0.29983232  0.52036298  0.48697114     0.18100
N3636       N  0.25961236  0.52204611  0.45451509    -0.88600
H3637       H  0.24497871  0.49280737  0.56933936     0.35500
H3638       H  0.24387202  0.52586254  0.57288340     0.40600
H3639       H  0.27119310  0.50680177  0.44708392     0.40200
H3640       H  0.26913568  0.53981683  0.45055954     0.35100
C3641       C  0.08975820  0.58907763  0.46710411    -0.26700
C3642       C  0.10169102  0.61384889  0.46569613    -0.14700
C3643       C  0.12878149  0.61556908  0.45937185     0.35900
C3644       C  0.14347237  0.59238099  0.45591627    -0.26100
C3645       C  0.13162362  0.56774099  0.45877345    -0.15400
C3646       C  0.10444110  0.56613401  0.46375213     0.37000
N3647       N  0.09160941  0.54109752  0.46525184    -0.89600
H3648       H  0.06904057  0.58738483  0.47166660     0.18100
H3649       H  0.16429800  0.59351496  0.45170117     0.18100
N3650       N  0.14130129  0.64074360  0.45659949    -0.88600
H3651       H  0.07686094  0.54055529  0.45094467     0.35500
H3652       H  0.08269199  0.53957071  0.48367916     0.40600
H3653       H  0.13278219  0.65010397  0.44041697     0.40200
H3654       H  0.16123932  0.63849312  0.45225309     0.35100
C3655       C  0.90277131  0.44884310  0.30582842    -0.26700
C3656       C  0.91049019  0.45679221  0.33096395    -0.14700
C3657       C  0.89133145  0.46228482  0.35018830     0.35900
C3658       C  0.86467532  0.45940534  0.34390278    -0.26100
C3659       C  0.85674628  0.45092410  0.31887709    -0.15400
C3660       C  0.87609576  0.44626075  0.29934871     0.37000
N3661       N  0.86874600  0.43885886  0.27306475    -0.89600
H3662       H  0.91763482  0.44501871  0.29109311     0.18100
H3663       H  0.85010577  0.46288827  0.35899385     0.18100
N3664       N  0.89906317  0.46989282  0.37630482    -0.88600
H3665       H  0.88536672  0.43563483  0.26145908     0.35500
H3666       H  0.85882979  0.45479776  0.26472863     0.40600
H3667       H  0.90908426  0.45404184  0.38469118     0.40200
H3668       H  0.88258253  0.47327608  0.38806054     0.35100
C3669       C  0.08922599  0.45868153  0.41519121    -0.26700
C3670       C  0.10566097  0.47965933  0.40817484    -0.14700
C3671       C  0.09921925  0.49503565  0.38591907     0.35900
C3672       C  0.07631710  0.48930990  0.37155448    -0.26100
C3673       C  0.05972859  0.46858694  0.37880389    -0.15400
C3674       C  0.06643251  0.45283401  0.40079437     0.37000
N3675       N  0.05008793  0.43169585  0.41000320    -0.89600
H3676       H  0.09397075  0.44683413  0.43223432     0.18100
H3677       H  0.07080506  0.50171897  0.35514694     0.18100
N3678       N  0.11528014  0.51711044  0.37861564    -0.88600
H3679       H  0.06093253  0.41432874  0.40848513     0.35500
H3680       H  0.03343031  0.42914825  0.39836700     0.40600
H3681       H  0.11400587  0.53101424  0.39370187     0.40200
H3682       H  0.10793714  0.52614790  0.36169143     0.35100
C3683       C  0.96172598  0.33664340  0.65647956    -0.26700
C3684       C  0.93651223  0.32885681  0.66390982    -0.14700
C3685       C  0.91702207  0.32509390  0.64441314     0.35900
C3686       C  0.92302631  0.32982789  0.61808849    -0.26100
C3687       C  0.94808225  0.33850928  0.61050684    -0.15400
C3688       C  0.96781531  0.34143336  0.63016820     0.37000
N3689       N  0.99421373  0.34921229  0.62433113    -0.89600
H3690       H  0.97680257  0.33929235  0.67131716     0.18100
H3691       H  0.90757050  0.32757919  0.60359703     0.18100
N3692       N  0.89058356  0.31783592  0.65081994    -0.88600
H3693       H  0.99423571  0.36851358  0.61737363     0.35500
H3694       H  0.00189322  0.33652003  0.61012943     0.40600
H3695       H  0.88311916  0.33141150  0.66430625     0.40200
H3696       H  0.89066672  0.29917690  0.65935394     0.35100
C3697       C  0.02529052  0.29604884  0.51698736    -0.26700
C3698       C  0.99837351  0.29615915  0.52278613    -0.14700
C3699       C  0.98540836  0.27205640  0.52757073     0.35900
C3700       C  0.99961528  0.24853875  0.52650168    -0.26100
C3701       C  0.02675765  0.24830339  0.52169470    -0.15400
C3702       C  0.03965037  0.27241797  0.51619323     0.37000
N3703       N  0.06726627  0.27305935  0.51036723    -0.89600
H3704       H  0.03520928  0.31451802  0.51325880     0.18100
H3705       H  0.98946273  0.23032099  0.53072577     0.18100
N3706       N  0.95811460  0.27153133  0.53486785    -0.88600
H3707       H  0.07375098  0.29239506  0.50785676     0.35500
H3708       H  0.06991624  0.26365673  0.49229364     0.40600
H3709       H  0.95648359  0.28057979  0.55324873     0.40200
H3710       H  0.95150915  0.25222501  0.53728944     0.35100
C3711       C  0.97706866  0.42101955  0.46506141    -0.26700
C3712       C  0.96558785  0.39587854  0.46464748    -0.14700
C3713       C  0.95630207  0.38559543  0.44063020     0.35900
C3714       C  0.95942915  0.40042134  0.41747352    -0.26100
C3715       C  0.97118937  0.42544559  0.41797427    -0.15400
C3716       C  0.97979561  0.43597957  0.44212105     0.37000
N3717       N  0.99176373  0.46157885  0.44326526    -0.89600
H3718       H  0.98398366  0.42914989  0.48349217     0.18100
H3719       H  0.95275696  0.39237941  0.39890714     0.18100
N3720       N  0.94424652  0.36006690  0.43971373    -0.88600
H3721       H  0.99660477  0.46653882  0.46261428     0.35500
H3722       H  0.00944813  0.46070553  0.43290837     0.40600
H3723       H  0.95856560  0.34626100  0.44482160     0.40200
H3724       H  0.93828519  0.35555382  0.42056795     0.35100
C3725       C  0.84012560  0.63592466  0.55614918    -0.26700
C3726       C  0.82793198  0.61714390  0.57245068    -0.14700
C3727       C  0.81088035  0.62573087  0.59252278     0.35900
C3728       C  0.80735661  0.65272785  0.59645771    -0.26100
C3729       C  0.82034643  0.67139344  0.58079837    -0.15400
C3730       C  0.83655854  0.66285266  0.56020415     0.37000
N3731       N  0.84943035  0.68134714  0.54335226    -0.89600
H3732       H  0.85311666  0.62982385  0.54045158     0.18100
H3733       H  0.79479881  0.65918927  0.61236192     0.18100
N3734       N  0.79748656  0.60721140  0.60910378    -0.88600
H3735       H  0.84345996  0.67762789  0.52404023     0.35500
H3736       H  0.86966770  0.67805311  0.54451521     0.40600
H3737       H  0.78403606  0.59702434  0.59735127     0.40200
H3738       H  0.78648121  0.61690582  0.62347057     0.35100
C3739       C  0.75961970  0.52870830  0.53699988    -0.26700
C3740       C  0.78282394  0.52998299  0.52195608    -0.14700
C3741       C  0.78047231  0.53004276  0.49420732     0.35900
C3742       C  0.75548968  0.52980182  0.48252971    -0.26100
C3743       C  0.73234493  0.53004833  0.49767605    -0.15400
C3744       C  0.73457922  0.52877456  0.52530258     0.37000
N3745       N  0.71149177  0.52794932  0.54151703    -0.89600
H3746       H  0.76085739  0.52842615  0.55823960     0.18100
H3747       H  0.75428136  0.53061318  0.46129114     0.18100
N3748       N  0.80287070  0.53062405  0.47722874    -0.88600
H3749       H  0.71654755  0.52766058  0.56142920     0.35500
H3750       H  0.70186434  0.51020368  0.53764320     0.40600
H3751       H  0.81508230  0.51478397  0.48188260     0.40200
H3752       H  0.81301059  0.54823890  0.48015397     0.35100
C3753       C  0.90939277  0.47371749  0.54832396    -0.26700
C3754       C  0.88338340  0.47151820  0.55726077    -0.14700
C3755       C  0.87351387  0.44673843  0.56464568     0.35900
C3756       C  0.88958812  0.42445699  0.56151194    -0.26100
C3757       C  0.91542222  0.42676580  0.55196972    -0.15400
C3758       C  0.92546545  0.45169259  0.54549071     0.37000
N3759       N  0.95157141  0.45448953  0.53507697    -0.89600
H3760       H  0.91722328  0.49284641  0.54318427     0.18100
H3761       H  0.88196021  0.40521360  0.56649868     0.18100
N3762       N  0.84713813  0.44411261  0.57431142    -0.88600
H3763       H  0.95602574  0.47425858  0.53169606     0.35500
H3764       H  0.95187222  0.44523652  0.51673822     0.40600
H3765       H  0.84643523  0.45310018  0.59276631     0.40200
H3766       H  0.84257318  0.42432162  0.57741493     0.35100
C3767       C  0.92810011  0.57886847  0.60541195    -0.26700
C3768       C  0.91386682  0.55536482  0.60733089    -0.14700
C3769       C  0.92239702  0.53553430  0.62480467     0.35900
C3770       C  0.94548066  0.53939032  0.63941349    -0.26100
C3771       C  0.95969412  0.56288605  0.63754910    -0.15400
C3772       C  0.95092162  0.58291996  0.62050580     0.37000
N3773       N  0.96569084  0.60687367  0.61792014    -0.89600
H3774       H  0.92142677  0.59402278  0.59203364     0.18100
H3775       H  0.95262058  0.52388456  0.65214417     0.18100
N3776       N  0.90836777  0.51105356  0.62668496    -0.88600
H3777       H  0.95651991  0.61958179  0.60464010     0.35500
H3778       H  0.98392415  0.60214685  0.60979722     0.40600
H3779       H  0.89058275  0.51481005  0.63618374     0.40200
H3780       H  0.91849928  0.49784032  0.63871560     0.35100
C3781       C  0.93575383  0.71712201  0.90674868    -0.26700
C3782       C  0.94953062  0.69482401  0.91495263    -0.14700
C3783       C  0.95993491  0.67757276  0.89564524     0.35900
C3784       C  0.95504070  0.68229896  0.86897391    -0.26100
C3785       C  0.94032264  0.70412150  0.86081683    -0.15400
C3786       C  0.93134317  0.72214779  0.88010762     0.37000
N3787       N  0.91745852  0.74557826  0.87297630    -0.89600
H3788       H  0.92820915  0.73086853  0.92116142     0.18100
H3789       H  0.96235761  0.66840639  0.85460354     0.18100
N3790       N  0.97470697  0.65459182  0.90236601    -0.88600
H3791       H  0.92786728  0.76171786  0.88032280     0.35500
H3792       H  0.89905341  0.74517899  0.88205708     0.40600
H3793       H  0.96345754  0.64289789  0.91494076     0.40200
H3794       H  0.99195326  0.66035947  0.91191516     0.35100
C3795       C  0.01777752  0.75133830  0.00853682    -0.26700
C3796       C  0.99122227  0.75008669  0.00142220    -0.14700
C3797       C  0.97764843  0.77369432  0.99576302     0.35900
C3798       C  0.99102683  0.79784176  0.99717865    -0.26100
C3799       C  0.01782779  0.79914433  0.00367424    -0.15400
C3800       C  0.03120645  0.77545793  0.00995939     0.37000
N3801       N  0.05849255  0.77570810  0.01730139    -0.89600
H3802       H  0.02817117  0.73332620  0.01306998     0.18100
H3803       H  0.98057705  0.81568636  0.99218172     0.18100
N3804       N  0.95058811  0.77309999  0.98760816    -0.88600
H3805       H  0.06552839  0.75660471  0.02003145     0.35500
H3806       H  0.05987939  0.78503883  0.03555981     0.40600
H3807       H  0.94977966  0.76363463  0.96937871     0.40200
H3808       H  0.94345017  0.79212303  0.98460415     0.35100
C3809       C  0.89353982  0.57632013  0.17692634    -0.26700
C3810       C  0.91229389  0.58651621  0.19449640    -0.14700
C3811       C  0.90384058  0.60028808  0.21694353     0.35900
C3812       C  0.87683421  0.60434074  0.22074416    -0.26100
C3813       C  0.85808132  0.59484321  0.20263599    -0.15400
C3814       C  0.86670159  0.58033780  0.18072046     0.37000
N3815       N  0.84844894  0.56991355  0.16196128    -0.89600
H3816       H  0.89969680  0.56565907  0.15955649     0.18100
H3817       H  0.87052221  0.61539209  0.23779207     0.18100
N3818       N  0.92255307  0.61008796  0.23573662    -0.88600
H3819       H  0.85108912  0.54956043  0.16104053     0.35500
H3820       H  0.85297573  0.57776707  0.14353548     0.40600
H3821       H  0.93181370  0.59385970  0.24427191     0.40200
H3822       H  0.91304047  0.62005428  0.25095933     0.35100
C3823       C  0.99137954  0.50478037  0.23477131    -0.26700
C3824       C  0.00104060  0.53069252  0.23485990    -0.14700
C3825       C  0.01207609  0.54076915  0.25842107     0.35900
C3826       C  0.01073872  0.52585584  0.28161539    -0.26100
C3827       C  0.99972267  0.50063970  0.28178944    -0.15400
C3828       C  0.99067610  0.48961882  0.25792054     0.37000
N3829       N  0.97972740  0.46356200  0.25743054    -0.89600
H3830       H  0.98325178  0.49665307  0.21684137     0.18100
H3831       H  0.01825910  0.53404212  0.29979529     0.18100
N3832       N  0.02435297  0.56622029  0.25892898    -0.88600
H3833       H  0.97431871  0.45829039  0.23831492     0.35500
H3834       H  0.96244461  0.46386150  0.26849890     0.40600
H3835       H  0.04103826  0.56520668  0.24701686     0.40200
H3836       H  0.03099460  0.57080435  0.27783491     0.35100
C3837       C  0.94712808  0.62268800  0.09803217    -0.26700
C3838       C  0.97027794  0.62676386  0.11249159    -0.14700
C3839       C  0.98732054  0.64751787  0.10519127     0.35900
C3840       C  0.98196814  0.66217329  0.08261060    -0.26100
C3841       C  0.95945902  0.65732351  0.06752788    -0.15400
C3842       C  0.94141496  0.63792793  0.07568488     0.37000
N3843       N  0.91807015  0.63290501  0.06055556    -0.89600
H3844       H  0.93376504  0.60717200  0.10386555     0.18100
H3845       H  0.99602835  0.67683278  0.07620153     0.18100
N3846       N  0.01093246  0.65327112  0.11940049    -0.88600
H3847       H  0.90679837  0.61816260  0.06936581     0.35500
H3848       H  0.92386681  0.62559111  0.04228952     0.40600
H3849       H  0.02225366  0.63620522  0.12040057     0.40200
H3850       H  0.00595762  0.65915314  0.13841662     0.35100
C3851       C  0.17891212  0.63641422  0.05761073    -0.26700
C3852       C  0.18869676  0.61790474  0.07580912    -0.14700
C3853       C  0.20293225  0.62699648  0.09775922     0.35900
C3854       C  0.20698461  0.65396453  0.10111366    -0.26100
C3855       C  0.19677894  0.67241834  0.08326007    -0.15400
C3856       C  0.18270721  0.66354240  0.06115053     0.37000
N3857       N  0.17234965  0.68196843  0.04241988    -0.89600
H3858       H  0.16786112  0.62981005  0.04064916     0.18100
H3859       H  0.21762033  0.66050375  0.11838730     0.18100
N3860       N  0.21290356  0.60911861  0.11706910    -0.88600
H3861       H  0.16218624  0.67218576  0.02745991     0.35500
H3862       H  0.18828522  0.69137299  0.03352223     0.40600
H3863       H  0.20472126  0.61408080  0.13523741     0.40200
H3864       H  0.23323695  0.61172841  0.11835418     0.35100
C3865       C  0.25656383  0.52577076  0.03936250    -0.26700
C3866       C  0.23299772  0.52911605  0.02517110    -0.14700
C3867       C  0.23442088  0.53171808  0.99753311     0.35900
C3868       C  0.25915783  0.53284552  0.98520136    -0.26100
C3869       C  0.28269126  0.53110896  0.99965459    -0.15400
C3870       C  0.28118110  0.52667243  0.02693369     0.37000
N3871       N  0.30455561  0.52305241  0.04219402    -0.89600
H3872       H  0.25607698  0.52321545  0.06048382     0.18100
H3873       H  0.25999230  0.53581144  0.96414881     0.18100
N3874       N  0.21087657  0.53365440  0.98203272    -0.88600
H3875       H  0.30344295  0.50467755  0.05130324     0.35500
H3876       H  0.30495570  0.53742950  0.05687488     0.40600
H3877       H  0.20099353  0.51570504  0.98356811     0.40200
H3878       H  0.21539076  0.53609129  0.96214880     0.35100
C3879       C  0.09573755  0.54175447  0.12928156    -0.26700
C3880       C  0.10406756  0.56074485  0.11111446    -0.14700
C3881       C  0.09076286  0.58520675  0.10982937     0.35900
C3882       C  0.06862929  0.58923620  0.12572161    -0.26100
C3883       C  0.05960338  0.56963892  0.14278678    -0.15400
C3884       C  0.07355223  0.54580997  0.14482515     0.37000
N3885       N  0.06555220  0.52538853  0.16247265    -0.89600
H3886       H  0.10607571  0.52319408  0.13078559     0.18100
H3887       H  0.05792454  0.60751593  0.12407433     0.18100
N3888       N  0.09900765  0.60635887  0.09298309    -0.88600
H3889       H  0.04685001  0.51885504  0.15708940     0.35500
H3890       H  0.06456280  0.53325729  0.18142851     0.40600
H3891       H  0.11649621  0.60205122  0.08329443     0.40200
H3892       H  0.10320520  0.62253766  0.10495147     0.35100
C3893       C  0.84519904  0.40189757  0.96364553    -0.26700
C3894       C  0.82815044  0.42146760  0.95419485    -0.14700
C3895       C  0.80562119  0.41410861  0.93992715     0.35900
C3896       C  0.80130270  0.38738678  0.93446624    -0.26100
C3897       C  0.81894002  0.36782060  0.94312796    -0.15400
C3898       C  0.84083796  0.37532178  0.95832464     0.37000
N3899       N  0.85898409  0.35620406  0.96817550    -0.89600
H3900       H  0.86257978  0.40723040  0.97476327     0.18100
H3901       H  0.78416568  0.38194482  0.92306232     0.18100
N3902       N  0.78722684  0.43364623  0.93112855    -0.88600
H3903       H  0.85962600  0.35790746  0.98863891     0.35500
H3904       H  0.87763536  0.36068761  0.96085523     0.40600
H3905       H  0.77891727  0.44226246  0.94781684     0.40200
H3906       H  0.77179366  0.42491501  0.92072368     0.35100
C3907       C  0.76493693  0.52000095  0.99797278    -0.26700
C3908       C  0.78710151  0.50927104  0.01077536    -0.14700
C3909       C  0.78425839  0.50069293  0.03698795     0.35900
C3910       C  0.75952012  0.50179106  0.04921290    -0.26100
C3911       C  0.73717181  0.51108652  0.03584556    -0.15400
C3912       C  0.74011471  0.52097292  0.01016442     0.37000
N3913       N  0.71791713  0.53184780  0.99649864    -0.89600
H3914       H  0.76673283  0.52715841  0.97802482     0.18100
H3915       H  0.75761400  0.49422303  0.06901704     0.18100
N3916       N  0.80614540  0.49010050  0.05113976    -0.88600
H3917       H  0.72334507  0.53820350  0.97774578     0.35500
H3918       H  0.71189882  0.54855844  0.00682535     0.40600
H3919       H  0.80143306  0.47092001  0.05679385     0.40200
H3920       H  0.80879420  0.50130075  0.06816844     0.35100
C3921       C  0.89146989  0.61276440  0.96975134    -0.26700
C3922       C  0.91620636  0.61225235  0.98204470    -0.14700
C3923       C  0.92552155  0.58858947  0.99274465     0.35900
C3924       C  0.91039141  0.56574149  0.99033605    -0.26100
C3925       C  0.88582909  0.56600898  0.97755663    -0.15400
C3926       C  0.87610012  0.58991501  0.96748500     0.37000
N3927       N  0.85058762  0.59104649  0.95541260    -0.89600
H3928       H  0.88405160  0.63113488  0.96196686     0.18100
H3929       H  0.91812382  0.54761170  0.99837822     0.18100
N3930       N  0.94989147  0.58783647  0.00684350    -0.88600
H3931       H  0.84649694  0.61010000  0.94892283     0.35500
H3932       H  0.83671498  0.58670977  0.96990778     0.40600
H3933       H  0.96208770  0.57403952  0.99776894     0.40200
H3934       H  0.94606251  0.58132030  0.02593803     0.35100
C3935       C  0.05013991  0.34964560  0.12993368    -0.26700
C3936       C  0.06591999  0.33763827  0.11054740    -0.14700
C3937       C  0.08559397  0.31983215  0.11842564     0.35900
C3938       C  0.09022251  0.31592393  0.14525916    -0.26100
C3939       C  0.07540013  0.32894405  0.16464337    -0.15400
C3940       C  0.05455405  0.34536555  0.15686702     0.37000
N3941       N  0.03810737  0.35775691  0.17617747    -0.89600
H3942       H  0.03462609  0.36300383  0.12415668     0.18100
H3943       H  0.10608609  0.30295721  0.15098558     0.18100
N3944       N  0.10109381  0.30600424  0.09929952    -0.88600
H3945       H  0.02383455  0.36942432  0.16712019     0.35500
H3946       H  0.02802330  0.34288713  0.18613025     0.40600
H3947       H  0.08850014  0.29327183  0.08919191     0.40200
H3948       H  0.11518318  0.29418920  0.10845172     0.35100
C3949       C  0.03050747  0.27354376  0.01691943    -0.26700
C3950       C  0.01656468  0.29737605  0.01866003    -0.14700
C3951       C  0.98889201  0.29661556  0.01773059     0.35900
C3952       C  0.97583664  0.27234293  0.01687764    -0.26100
C3953       C  0.98972470  0.24841533  0.01702055    -0.15400
C3954       C  0.01744744  0.24913678  0.01603718     0.37000
N3955       N  0.03230645  0.22517466  0.01464106    -0.89600
H3956       H  0.05177727  0.27381270  0.01720316     0.18100
H3957       H  0.95455896  0.27236121  0.01722561     0.18100
N3958       N  0.97382847  0.32038167  0.01801963    -0.88600
H3959       H  0.05245892  0.22913542  0.01446655     0.35500
H3960       H  0.02791520  0.21624068  0.99665603     0.40600
H3961       H  0.96137478  0.31987714  0.03432840     0.40200
H3962       H  0.96215696  0.32076306  0.00110594     0.35100
C3963       C  0.10550743  0.47429559  0.05851159    -0.26700
C3964       C  0.13275652  0.47185611  0.06156851    -0.14700
C3965       C  0.14416456  0.44674603  0.06272144     0.35900
C3966       C  0.12797870  0.42445301  0.05956085    -0.26100
C3967       C  0.10061294  0.42691090  0.05563720    -0.15400
C3968       C  0.08924728  0.45224274  0.05593489     0.37000
N3969       N  0.06140760  0.45572550  0.05268119    -0.89600
H3970       H  0.09680312  0.49373315  0.05811502     0.18100
H3971       H  0.13685371  0.40511202  0.05966689     0.18100
N3972       N  0.17204089  0.44401692  0.06624066    -0.88600
H3973       H  0.05666059  0.47566011  0.05125322     0.35500
H3974       H  0.05237587  0.44895995  0.06982491     0.40600
H3975       H  0.18121781  0.45223290  0.04981694     0.40200
H3976       H  0.17729877  0.42416391  0.06660874     0.35100
C3977       C  0.11173524  0.43794371  0.82252672    -0.26700
C3978       C  0.10392154  0.46273885  0.83159218    -0.14700
C3979       C  0.12321619  0.48245720  0.83567793     0.35900
C3980       C  0.14989990  0.47626372  0.83204155    -0.26100
C3981       C  0.15750393  0.45122961  0.82350087    -0.15400
C3982       C  0.13805784  0.43201041  0.81840342     0.37000
N3983       N  0.14441277  0.40580119  0.81027453    -0.89600
H3984       H  0.09735054  0.42255187  0.81936740     0.18100
H3985       H  0.16479964  0.49108311  0.83556046     0.18100
N3986       N  0.11578582  0.50857819  0.84346229    -0.88600
H3987       H  0.15770072  0.39772372  0.82370501     0.35500
H3988       H  0.15297035  0.40641924  0.79165413     0.40600
H3989       H  0.10498868  0.51675086  0.82800750     0.40200
H3990       H  0.13237985  0.52045653  0.84591391     0.35100
C3991       C  0.01359829  0.49392251  0.76404784    -0.26700
C3992       C  0.01535730  0.50946046  0.78687690    -0.14700
C3993       C  0.01720984  0.53703696  0.78413615     0.35900
C3994       C  0.01848156  0.54809406  0.75881608    -0.26100
C3995       C  0.01819050  0.53234466  0.73601338    -0.15400
C3996       C  0.01534621  0.50483427  0.73893687     0.37000
N3997       N  0.01440938  0.48724076  0.71697325    -0.89600
H3998       H  0.01207080  0.47274237  0.76556550     0.18100
H3999       H  0.02052934  0.56920352  0.75699257     0.18100
N4000       N  0.01830527  0.55373783  0.80690807    -0.88600
H4001       H  0.03241910  0.48780096  0.70718712     0.35500
H4002       H  0.99938312  0.49319979  0.70429229     0.40600
H4003       H  0.00025394  0.55216063  0.81655122     0.40200
H4004       H  0.02030104  0.57343651  0.80143368     0.35100
C4005       C  0.94917865  0.45404426  0.90208337    -0.26700
C4006       C  0.95653632  0.47459956  0.88520463    -0.14700
C4007       C  0.94155999  0.49776782  0.88465491     0.35900
C4008       C  0.92000298  0.50046095  0.90147938    -0.26100
C4009       C  0.91343657  0.48060159  0.91944918    -0.15400
C4010       C  0.92773843  0.45686935  0.91937499     0.37000
N4011       N  0.92049502  0.43587738  0.93679865    -0.89600
H4012       H  0.96091606  0.43629428  0.90264337     0.18100
H4013       H  0.90881097  0.51857132  0.90106255     0.18100
N4014       N  0.94842619  0.51872860  0.86718475    -0.88600
H4015       H  0.93303927  0.41981147  0.93430190     0.35500
H4016       H  0.90170957  0.42951636  0.93140077     0.40600
H4017       H  0.95196048  0.53555778  0.87844605     0.40200
H4018       H  0.93227301  0.52246712  0.85504567     0.35100
C4019       C  0.03588886  0.43782227  0.94252496    -0.26700
C4020       C  0.04589695  0.42808225  0.91893187    -0.14700
C4021       C  0.05948697  0.40376290  0.91894849     0.35900
C4022       C  0.06228273  0.38964008  0.94250573    -0.26100
C4023       C  0.05132331  0.39902601  0.96601691    -0.15400
C4024       C  0.03847233  0.42377166  0.96600360     0.37000
N4025       N  0.02831615  0.43484989  0.98993260    -0.89600
H4026       H  0.02553811  0.45643077  0.94258183     0.18100
H4027       H  0.07256257  0.37100396  0.94229935     0.18100
N4028       N  0.07106954  0.39320516  0.89557811    -0.88600
H4029       H  0.01892527  0.45276620  0.98637336     0.35500
H4030       H  0.04435485  0.43900241  0.00209286     0.40600
H4031       H  0.08370279  0.40732271  0.88763077     0.40200
H4032       H  0.05621327  0.38916483  0.88199928     0.35100
loop_ 
_geom_bond_atom_site_label_1 
_geom_bond_atom_site_label_2 
_geom_bond_distance 
_geom_bond_site_symmetry_2 
_ccdc_geom_bond_type 
O1           Ni9   1.927       .  S
O1           C11   1.286       .  A
O2           Ni9   1.927       .  S
O2           C12   1.284       .  A
O3           Ni9   1.906   1_655  S
O3           C13   1.278       .  A
O4           Ni9   1.904       .  S
O4           C14   1.277       .  A
O5          Ni10   1.917       .  S
O5           C14   1.284       .  A
O6          Ni10   1.927   1_655  S
O6           C13   1.283       .  A
O7          Ni10   1.908       .  S
O7           C12   1.280       .  A
O8          Ni10   1.905       .  S
O8           C11   1.276       .  A
Ni9         Ni10   2.385       .  S
C11        C4020   1.477       .  S
C12        C3992   1.491       .  S
C13        C4006   1.473       .  S
C14        C3978   1.481       .  S
O15         Ni23   1.923       .  S
O15          C25   1.284       .  A
O16         Ni23   1.922       .  S
O16          C26   1.283       .  A
O17         Ni23   1.894       .  S
O17          C27   1.275       .  A
O18         Ni23   1.894       .  S
O18          C28   1.276   1_554  A
O19         Ni24   1.939   1_556  S
O19          C28   1.286       .  A
O20         Ni24   1.930       .  S
O20          C27   1.286       .  A
O21         Ni24   1.916       .  S
O21          C26   1.281       .  A
O22         Ni24   1.910       .  S
O22          C25   1.279       .  A
Ni23        Ni24   2.383       .  S
C25        C3967   1.488       .  S
C26        C3950   1.490       .  S
C27        C3936   1.486       .  S
C28        C4023   1.486       .  S
O29         Ni37   1.939       .  S
O29          C39   1.286       .  A
O30         Ni37   1.940   1_554  S
O30          C40   1.287   1_554  A
O31         Ni37   1.887       .  S
O31          C41   1.275       .  A
O32         Ni37   1.896       .  S
O32          C42   1.276       .  A
O33         Ni38   1.929       .  S
O33          C42   1.285       .  A
O34         Ni38   1.931       .  S
O34          C41   1.285       .  A
O35         Ni38   1.906       .  S
O35          C40   1.278       .  A
O36         Ni38   1.900       .  S
O36          C39   1.276       .  A
Ni37        Ni38   2.386       .  S
C39        C4009   1.477       .  S
C40        C3908   1.498   1_556  S
C41        C3894   1.476       .  S
C42        C3925   1.481       .  S
O43         Ni51   1.926       .  S
O43          C53   1.284       .  A
O44         Ni51   1.930       .  S
O44          C54   1.285       .  A
O45         Ni51   1.897       .  S
O45          C55   1.277       .  A
O46         Ni51   1.893       .  S
O46          C56   1.276       .  A
O47         Ni52   1.928       .  S
O47          C56   1.285       .  A
O48         Ni52   1.932       .  S
O48          C55   1.284       .  A
O49         Ni52   1.912       .  S
O49          C54   1.280       .  A
O50         Ni52   1.905       .  S
O50          C53   1.278       .  A
Ni51        Ni52   2.386       .  S
C53        C3880   1.474       .  S
C54        C3866   1.496       .  S
C55        C3964   1.473       .  S
C56        C3852   1.485       .  S
O57         Ni65   1.931       .  S
O57          C67   1.285       .  A
O58         Ni65   1.931       .  S
O58          C68   1.285       .  A
O59         Ni65   1.888       .  S
O59          C69   1.275       .  A
O60         Ni65   1.895   1_455  S
O60          C70   1.275       .  A
O61         Ni66   1.930   1_455  S
O61          C70   1.284       .  A
O62         Ni66   1.928       .  S
O62          C69   1.284       .  A
O63         Ni66   1.910   1_455  S
O63          C68   1.280   1_455  A
O64         Ni66   1.906       .  S
O64          C67   1.277       .  A
Ni65        Ni66   2.387       .  S
C67        C3838   1.480       .  S
C68        C3824   1.495   1_655  S
C69        C3810   1.476       .  S
C70        C3883   1.467       .  S
O71         Ni79   1.928       .  S
O71          C81   1.285       .  A
O72         Ni79   1.927       .  S
O72          C82   1.285       .  A
O73         Ni79   1.900   1_554  S
O73          C83   1.277       .  A
O74         Ni79   1.903       .  S
O74          C84   1.276       .  A
O75         Ni80   1.925       .  S
O75          C84   1.285       .  A
O76         Ni80   1.931   1_554  S
O76          C83   1.284       .  A
O77         Ni80   1.907   1_554  S
O77          C82   1.278   1_554  A
O78         Ni80   1.898       .  S
O78          C81   1.276       .  A
Ni79        Ni80   2.387       .  S
C81        C3922   1.474       .  S
C82        C3796   1.486   1_556  S
C83        C3841   1.471       .  S
C84        C3782   1.482       .  S
O85         Ni93   1.933       .  S
O85          C95   1.285       .  A
O86         Ni93   1.934       .  S
O86          C96   1.285       .  A
O87         Ni93   1.888       .  S
O87          C97   1.275       .  A
O88         Ni93   1.890       .  S
O88          C98   1.277       .  A
O89         Ni94   1.926       .  S
O89          C98   1.283       .  A
O90         Ni94   1.923       .  S
O90          C97   1.284       .  A
O91         Ni94   1.906       .  S
O91          C96   1.279       .  A
O92         Ni94   1.900       .  S
O92          C95   1.276       .  A
Ni93        Ni94   2.385       .  S
C95        C3768   1.474       .  S
C96        C3740   1.496       .  S
C97        C3726   1.479       .  S
C98        C3754   1.473       .  S
O99        Ni107   1.918       .  S
O99         C109   1.283       .  A
O100       Ni107   1.923       .  S
O100        C110   1.283       .  A
O101       Ni107   1.900       .  S
O101        C111   1.278       .  A
O102       Ni107   1.897       .  S
O102        C112   1.275       .  A
O103       Ni108   1.927       .  S
O103        C112   1.286       .  A
O104       Ni108   1.932       .  S
O104        C111   1.285       .  A
O105       Ni108   1.903       .  S
O105        C110   1.278       .  A
O106       Ni108   1.902       .  S
O106        C109   1.277       .  A
Ni107      Ni108   2.386       .  S
C109       C3757   1.471       .  S
C110       C3698   1.481       .  S
C111       C3712   1.482       .  S
C112       C3687   1.486       .  S
O113       Ni121   1.920       .  S
O113        C123   1.283       .  A
O114       Ni121   1.923       .  S
O114        C124   1.284       .  A
O115       Ni121   1.901       .  S
O115        C125   1.277       .  A
O116       Ni121   1.903   1_455  S
O116        C126   1.277       .  A
O117       Ni122   1.932   1_455  S
O117        C126   1.284       .  A
O118       Ni122   1.922       .  S
O118        C125   1.283       .  A
O119       Ni122   1.918       .  S
O119        C124   1.280       .  A
O120       Ni122   1.912       .  S
O120        C123   1.280       .  A
Ni121      Ni122   2.390       .  S
C123       C3715   1.479       .  S
C124       C3827   1.484       .  S
C125       C3656   1.469       .  S
C126       C3673   1.474       .  S
O127       Ni135   1.929       .  S
O127        C137   1.285       .  A
O128       Ni135   1.930       .  S
O128        C138   1.285       .  A
O129       Ni135   1.894       .  S
O129        C139   1.276       .  A
O130       Ni135   1.891       .  S
O130        C140   1.275       .  A
O131       Ni136   1.931       .  S
O131        C140   1.285       .  A
O132       Ni136   1.930       .  S
O132        C139   1.284       .  A
O133       Ni136   1.908       .  S
O133        C138   1.278       .  A
O134       Ni136   1.908       .  S
O134        C137   1.279       .  A
Ni135      Ni136   2.386       .  S
C137       C3670   1.484       .  S
C138       C3628   1.492       .  S
C139       C3645   1.472       .  S
C140       C3614   1.481       .  S
O141       Ni149   1.924       .  S
O141        C151   1.284       .  A
O142       Ni149   1.924       .  S
O142        C152   1.283       .  A
O143       Ni149   1.903       .  S
O143        C153   1.277   1_455  A
O144       Ni149   1.902       .  S
O144        C154   1.277       .  A
O145       Ni150   1.920       .  S
O145        C154   1.283       .  A
O146       Ni150   1.927   1_655  S
O146        C153   1.283       .  A
O147       Ni150   1.909       .  S
O147        C152   1.279       .  A
O148       Ni150   1.900       .  S
O148        C151   1.277       .  A
Ni149      Ni150   2.387       .  S
C151       C3603   1.474       .  S
C152       C3995   1.490       .  S
C153       C3771   1.472       .  S
C154       C3586   1.475       .  S
O155       Ni163   1.926       .  S
O155        C165   1.285       .  A
O156       Ni163   1.928       .  S
O156        C166   1.285       .  A
O157       Ni163   1.889       .  S
O157        C167   1.274       .  A
O158       Ni163   1.891       .  S
O158        C168   1.276       .  A
O159       Ni164   1.930       .  S
O159        C168   1.284       .  A
O160       Ni164   1.927       .  S
O160        C167   1.286       .  A
O161       Ni164   1.908       .  S
O161        C166   1.277       .  A
O162       Ni164   1.903       .  S
O162        C165   1.277       .  A
Ni163      Ni164   2.384       .  S
C165       C3642   1.481       .  S
C166       C3575   1.495       .  S
C167       C3558   1.480       .  S
C168       C3600   1.476       .  S
O169       Ni177   1.921       .  S
O169        C179   1.283       .  A
O170       Ni177   1.923       .  S
O170        C180   1.285       .  A
O171       Ni177   1.894       .  S
O171        C181   1.275       .  A
O172       Ni177   1.897       .  S
O172        C182   1.277       .  A
O173       Ni178   1.935       .  S
O173        C182   1.285       .  A
O174       Ni178   1.929       .  S
O174        C181   1.286       .  A
O175       Ni178   1.912       .  S
O175        C180   1.279       .  A
O176       Ni178   1.906       .  S
O176        C179   1.278       .  A
Ni177      Ni178   2.384       .  S
C179       C3544   1.478       .  S
C180       C3516   1.493       .  S
C181       C3502   1.483       .  S
C182       C3530   1.482       .  S
O183       Ni191   1.929       .  S
O183        C193   1.285       .  A
O184       Ni191   1.931       .  S
O184        C194   1.285       .  A
O185       Ni191   1.898       .  S
O185        C195   1.276       .  A
O186       Ni191   1.900       .  S
O186        C196   1.276       .  A
O187       Ni192   1.923       .  S
O187        C196   1.284       .  A
O188       Ni192   1.931       .  S
O188        C195   1.284       .  A
O189       Ni192   1.914       .  S
O189        C194   1.280       .  A
O190       Ni192   1.907       .  S
O190        C193   1.278       .  A
Ni191      Ni192   2.388       .  S
C193       C3533   1.480       .  S
C194       C3869   1.492       .  S
C195       C3488   1.466       .  S
C196       C3474   1.473       .  S
O197       Ni205   1.932       .  S
O197        C207   1.285       .  A
O198       Ni205   1.930       .  S
O198        C208   1.285   1_556  A
O199       Ni205   1.889       .  S
O199        C209   1.275       .  A
O200       Ni205   1.896   1_554  S
O200        C210   1.277       .  A
O201       Ni206   1.931   1_554  S
O201        C210   1.284       .  A
O202       Ni206   1.926       .  S
O202        C209   1.285       .  A
O203       Ni206   1.914   1_554  S
O203        C208   1.280       .  A
O204       Ni206   1.904       .  S
O204        C207   1.278       .  A
Ni205      Ni206   2.386       .  S
C207       C3491   1.480       .  S
C208       C3446   1.496       .  S
C209       C3432   1.477       .  S
C210       C3460   1.473       .  S
O211       Ni219   1.929       .  S
O211        C221   1.284       .  A
O212       Ni219   1.933       .  S
O212        C222   1.286       .  A
O213       Ni219   1.897       .  S
O213        C223   1.277       .  A
O214       Ni219   1.888       .  S
O214        C224   1.275       .  A
O215       Ni220   1.936       .  S
O215        C224   1.286       .  A
O216       Ni220   1.938       .  S
O216        C223   1.286       .  A
O217       Ni220   1.912       .  S
O217        C222   1.279       .  A
O218       Ni220   1.906       .  S
O218        C221   1.277       .  A
Ni219      Ni220   2.385       .  S
C221       C3463   1.472       .  S
C222       C3404   1.498       .  S
C223       C3418   1.481       .  S
C224       C3390   1.482       .  S
O225       Ni233   1.935       .  S
O225        C235   1.286       .  A
O226       Ni233   1.935       .  S
O226        C236   1.286       .  A
O227       Ni233   1.897       .  S
O227        C237   1.277   1_554  A
O228       Ni233   1.890       .  S
O228        C238   1.276       .  A
O229       Ni234   1.924       .  S
O229        C238   1.284       .  A
O230       Ni234   1.928   1_556  S
O230        C237   1.283       .  A
O231       Ni234   1.906       .  S
O231        C236   1.279       .  A
O232       Ni234   1.904       .  S
O232        C235   1.278       .  A
Ni233      Ni234   2.385       .  S
C235       C3376   1.486       .  S
C236       C3362   1.493       .  S
C237       C3547   1.475       .  S
C238       C3351   1.480       .  S
O239       Ni247   1.931       .  S
O239        C249   1.286       .  A
O240       Ni247   1.934       .  S
O240        C250   1.286       .  A
O241       Ni247   1.899       .  S
O241        C251   1.277       .  A
O242       Ni247   1.901       .  S
O242        C252   1.277       .  A
O243       Ni248   1.932       .  S
O243        C252   1.284       .  A
O244       Ni248   1.920       .  S
O244        C251   1.284       .  A
O245       Ni248   1.914       .  S
O245        C250   1.280       .  A
O246       Ni248   1.905       .  S
O246        C249   1.278       .  A
Ni247      Ni248   2.388       .  S
C249       C3421   1.484       .  S
C250       C3911   1.489       .  S
C251       C3334   1.477       .  S
C252       C3379   1.471       .  S
O253       Ni261   1.925       .  S
O253        C263   1.283       .  A
O254       Ni261   1.927       .  S
O254        C264   1.285       .  A
O255       Ni261   1.889       .  S
O255        C265   1.276       .  A
O256       Ni261   1.893       .  S
O256        C266   1.276       .  A
O257       Ni262   1.928       .  S
O257        C266   1.283       .  A
O258       Ni262   1.928       .  S
O258        C265   1.285       .  A
O259       Ni262   1.904       .  S
O259        C264   1.278       .  A
O260       Ni262   1.898       .  S
O260        C263   1.277       .  A
Ni261      Ni262   2.390       .  S
C263       C3320   1.467       .  S
C264       C3292   1.483       .  S
C265       C3278   1.479       .  S
C266       C3306   1.464       .  S
O267       Ni275   1.922       .  S
O267        C277   1.284       .  A
O268       Ni275   1.927       .  S
O268        C278   1.285       .  A
O269       Ni275   1.902       .  S
O269        C279   1.278       .  A
O270       Ni275   1.897       .  S
O270        C280   1.277       .  A
O271       Ni276   1.937       .  S
O271        C280   1.286       .  A
O272       Ni276   1.941       .  S
O272        C279   1.286       .  A
O273       Ni276   1.916       .  S
O273        C278   1.279       .  A
O274       Ni276   1.906       .  S
O274        C277   1.278       .  A
Ni275      Ni276   2.382       .  S
C277       C3309   1.485       .  S
C278       C3407   1.495       .  S
C279       C3264   1.489       .  S
C280       C3250   1.491       .  S
O281       Ni289   1.929       .  S
O281        C291   1.285       .  A
O282       Ni289   1.928       .  S
O282        C292   1.285       .  A
O283       Ni289   1.886       .  S
O283        C293   1.275       .  A
O284       Ni289   1.890       .  S
O284        C294   1.276       .  A
O285       Ni290   1.929       .  S
O285        C294   1.284       .  A
O286       Ni290   1.921       .  S
O286        C293   1.283       .  A
O287       Ni290   1.916       .  S
O287        C292   1.281       .  A
O288       Ni290   1.914       .  S
O288        C291   1.279       .  A
Ni289      Ni290   2.386       .  S
C291       C3267   1.486       .  S
C292       C3743   1.494       .  S
C293       C3222   1.470       .  S
C294       C3236   1.475       .  S
O295       Ni303   1.927       .  S
O295        C305   1.285       .  A
O296       Ni303   1.929       .  S
O296        C306   1.285       .  A
O297       Ni303   1.893       .  S
O297        C307   1.277       .  A
O298       Ni303   1.898       .  S
O298        C308   1.276       .  A
O299       Ni304   1.927       .  S
O299        C308   1.286       .  A
O300       Ni304   1.932       .  S
O300        C307   1.285       .  A
O301       Ni304   1.902       .  S
O301        C306   1.277       .  A
O302       Ni304   1.897       .  S
O302        C305   1.276       .  A
Ni303      Ni304   2.388       .  S
C305       C3239   1.471       .  S
C306       C3194   1.479       .  S
C307       C3208   1.478       .  S
C308       C3180   1.484       .  S
O309       Ni317   1.933       .  S
O309        C319   1.286       .  A
O310       Ni317   1.932       .  S
O310        C320   1.285       .  A
O311       Ni317   1.890       .  S
O311        C321   1.276       .  A
O312       Ni317   1.888       .  S
O312        C322   1.275       .  A
O313       Ni318   1.930       .  S
O313        C322   1.285       .  A
O314       Ni318   1.924       .  S
O314        C321   1.284       .  A
O315       Ni318   1.903       .  S
O315        C320   1.277       .  A
O316       Ni318   1.897       .  S
O316        C319   1.275       .  A
Ni317      Ni318   2.386       .  S
C319       C3211   1.472       .  S
C320       C3519   1.487       .  S
C321       C3152   1.479       .  S
C322       C3166   1.480       .  S
O323       Ni331   1.918       .  S
O323        C333   1.282       .  A
O324       Ni331   1.921       .  S
O324        C334   1.284       .  A
O325       Ni331   1.898       .  S
O325        C335   1.277       .  A
O326       Ni331   1.902       .  S
O326        C336   1.278       .  A
O327       Ni332   1.917       .  S
O327        C336   1.283       .  A
O328       Ni332   1.924       .  S
O328        C335   1.283       .  A
O329       Ni332   1.911       .  S
O329        C334   1.279       .  A
O330       Ni332   1.903       .  S
O330        C333   1.277       .  A
Ni331      Ni332   2.390       .  S
C333       C3169   1.464       .  S
C334       C3631   1.486       .  S
C335       C3323   1.467       .  S
C336       C3141   1.475       .  S
O337       Ni345   1.929       .  S
O337        C347   1.285       .  A
O338       Ni345   1.929       .  S
O338        C348   1.285       .  A
O339       Ni345   1.888       .  S
O339        C349   1.275       .  A
O340       Ni345   1.894       .  S
O340        C350   1.277       .  A
O341       Ni346   1.932       .  S
O341        C350   1.284       .  A
O342       Ni346   1.930       .  S
O342        C349   1.285       .  A
O343       Ni346   1.902       .  S
O343        C348   1.278       .  A
O344       Ni346   1.901       .  S
O344        C347   1.277       .  A
Ni345      Ni346   2.386       .  S
C347       C3124   1.478       .  S
C348       C3295   1.490       .  S
C349       C3096   1.478       .  S
C350       C3110   1.475       .  S
O351       Ni359   1.924       .  S
O351        C361   1.284       .  A
O352       Ni359   1.931   1_545  S
O352        C362   1.285   1_545  A
O353       Ni359   1.897       .  S
O353        C363   1.276       .  A
O354       Ni359   1.896       .  S
O354        C364   1.277       .  A
O355       Ni360   1.921       .  S
O355        C364   1.283       .  A
O356       Ni360   1.925       .  S
O356        C363   1.282       .  A
O357       Ni360   1.917       .  S
O357        C362   1.281       .  A
O358       Ni360   1.908       .  S
O358        C361   1.279       .  A
Ni359      Ni360   2.388       .  S
C361       C3113   1.483       .  S
C362       C3068   1.494   1_565  S
C363       C3082   1.462       .  S
C364       C3054   1.476       .  S
O365       Ni373   1.917       .  S
O365        C375   1.284       .  A
O366       Ni373   1.919       .  S
O366        C376   1.284       .  A
O367       Ni373   1.899       .  S
O367        C377   1.276       .  A
O368       Ni373   1.897       .  S
O368        C378   1.276       .  A
O369       Ni374   1.926       .  S
O369        C378   1.284       .  A
O370       Ni374   1.931       .  S
O370        C377   1.284       .  A
O371       Ni374   1.912       .  S
O371        C376   1.280       .  A
O372       Ni374   1.906       .  S
O372        C375   1.278       .  A
Ni373      Ni374   2.388       .  S
C375       C3040   1.477       .  S
C376       C3197   1.489       .  S
C377       C3026   1.470       .  S
C378       C3012   1.469       .  S
O379       Ni387   1.929       .  S
O379        C389   1.285       .  A
O380       Ni387   1.931   1_545  S
O380        C390   1.284       .  A
O381       Ni387   1.893       .  S
O381        C391   1.276       .  A
O382       Ni387   1.893   1_545  S
O382        C392   1.276       .  A
O383       Ni388   1.930       .  S
O383        C392   1.284       .  A
O384       Ni388   1.928   1_565  S
O384        C391   1.285       .  A
O385       Ni388   1.901       .  S
O385        C390   1.278       .  A
O386       Ni388   1.900   1_565  S
O386        C389   1.278       .  A
Ni387      Ni388   2.386   1_565  S
C389       C3085   1.486       .  S
C390       C2998   1.491       .  S
C391       C2984   1.474       .  S
C392       C3043   1.471       .  S
O393       Ni401   1.938       .  S
O393        C403   1.286       .  A
O394       Ni401   1.940       .  S
O394        C404   1.287       .  A
O395       Ni401   1.887       .  S
O395        C405   1.275       .  A
O396       Ni401   1.894       .  S
O396        C406   1.276       .  A
O397       Ni402   1.928       .  S
O397        C406   1.285       .  A
O398       Ni402   1.930       .  S
O398        C405   1.284       .  A
O399       Ni402   1.903       .  S
O399        C404   1.279       .  A
O400       Ni402   1.898       .  S
O400        C403   1.276       .  A
Ni401      Ni402   2.387       .  S
C403       C3029   1.480       .  S
C404       C2956   1.496       .  S
C405       C2942   1.469       .  S
C406       C2973   1.479       .  S
O407       Ni415   1.927       .  S
O407        C417   1.285       .  A
O408       Ni415   1.926       .  S
O408        C418   1.285       .  A
O409       Ni415   1.897       .  S
O409        C419   1.276   1_545  A
O410       Ni415   1.898       .  S
O410        C420   1.276       .  A
O411       Ni416   1.924       .  S
O411        C420   1.285       .  A
O412       Ni416   1.927       .  S
O412        C419   1.283   1_545  A
O413       Ni416   1.905       .  S
O413        C418   1.277       .  A
O414       Ni416   1.894       .  S
O414        C417   1.276       .  A
Ni415      Ni416   2.387       .  S
C417       C2970   1.471       .  S
C418       C2928   1.486       .  S
C419       C3127   1.466       .  S
C420       C2914   1.486       .  S
O421       Ni429   1.928       .  S
O421        C431   1.284       .  A
O422       Ni429   1.930       .  S
O422        C432   1.284       .  A
O423       Ni429   1.894       .  S
O423        C433   1.277   1_554  A
O424       Ni429   1.892       .  S
O424        C434   1.275       .  A
O425       Ni430   1.932       .  S
O425        C434   1.287       .  A
O426       Ni430   1.933   1_556  S
O426        C433   1.285       .  A
O427       Ni430   1.915       .  S
O427        C432   1.280       .  A
O428       Ni430   1.905       .  S
O428        C431   1.278       .  A
Ni429      Ni430   2.384       .  S
C431       C2900   1.478       .  S
C432       C3365   1.497       .  S
C433       C2889   1.482       .  S
C434       C2872   1.486       .  S
O435       Ni443   1.923       .  S
O435        C445   1.284       .  A
O436       Ni443   1.929       .  S
O436        C446   1.284       .  A
O437       Ni443   1.904       .  S
O437        C447   1.279       .  A
O438       Ni443   1.910       .  S
O438        C448   1.279   1_545  A
O439       Ni444   1.926       .  S
O439        C448   1.283   1_545  A
O440       Ni444   1.918       .  S
O440        C447   1.282       .  A
O441       Ni444   1.919       .  S
O441        C446   1.282       .  A
O442       Ni444   1.911       .  S
O442        C445   1.279       .  A
Ni443      Ni444   2.386       .  S
C445       C2858   1.482       .  S
C446       C2847   1.498       .  S
C447       C2833   1.479       .  S
C448       C2903   1.474       .  S
O449       Ni457   1.927       .  S
O449        C459   1.284       .  A
O450       Ni457   1.927       .  S
O450        C460   1.285       .  A
O451       Ni457   1.899       .  S
O451        C461   1.277       .  A
O452       Ni457   1.900       .  S
O452        C462   1.276       .  A
O453       Ni458   1.928       .  S
O453        C462   1.283       .  A
O454       Ni458   1.920       .  S
O454        C461   1.283       .  A
O455       Ni458   1.915       .  S
O455        C460   1.280       .  A
O456       Ni458   1.906       .  S
O456        C459   1.278       .  A
Ni457      Ni458   2.388       .  S
C459       C2886   1.479       .  S
C460       C2959   1.490       .  S
C461       C2802   1.479       .  S
C462       C2819   1.466       .  S
O463       Ni471   1.927       .  S
O463        C473   1.285       .  A
O464       Ni471   1.930       .  S
O464        C474   1.286       .  A
O465       Ni471   1.893       .  S
O465        C475   1.276       .  A
O466       Ni471   1.893       .  S
O466        C476   1.275       .  A
O467       Ni472   1.927       .  S
O467        C476   1.285       .  A
O468       Ni472   1.937       .  S
O468        C475   1.285       .  A
O469       Ni472   1.918       .  S
O469        C474   1.280       .  A
O470       Ni472   1.914       .  S
O470        C473   1.279       .  A
Ni471      Ni472   2.385       .  S
C473       C2788   1.486       .  S
C474       C3071   1.501       .  S
C475       C2861   1.478       .  S
C476       C2774   1.474       .  S
O477       Ni485   1.929       .  S
O477        C487   1.286       .  A
O478       Ni485   1.935       .  S
O478        C488   1.286       .  A
O479       Ni485   1.893       .  S
O479        C489   1.275       .  A
O480       Ni485   1.895   1_554  S
O480        C490   1.277       .  A
O481       Ni486   1.938   1_554  S
O481        C490   1.285       .  A
O482       Ni486   1.930       .  S
O482        C489   1.285       .  A
O483       Ni486   1.910       .  S
O483        C488   1.280       .  A
O484       Ni486   1.908       .  S
O484        C487   1.278       .  A
Ni485      Ni486   2.387       .  S
C487       C2763   1.485       .  S
C488       C3449   1.495   1_556  S
C489       C2746   1.470       .  S
C490       C2791   1.478       .  S
O491       Ni499   1.927       .  S
O491        C501   1.284       .  A
O492       Ni499   1.932   1_545  S
O492        C502   1.286       .  A
O493       Ni499   1.901   1_545  S
O493        C503   1.278       .  A
O494       Ni499   1.896       .  S
O494        C504   1.277       .  A
O495       Ni500   1.929   1_565  S
O495        C504   1.285       .  A
O496       Ni500   1.933       .  S
O496        C503   1.284       .  A
O497       Ni500   1.913       .  S
O497        C502   1.280       .  A
O498       Ni500   1.907   1_565  S
O498        C501   1.279       .  A
Ni499      Ni500   2.384   1_565  S
C501       C2816   1.484       .  S
C502       C2732   1.496       .  S
C503       C2760   1.478       .  S
C504       C2718   1.486       .  S
O505       Ni513   1.931       .  S
O505        C515   1.285       .  A
O506       Ni513   1.932       .  S
O506        C516   1.285       .  A
O507       Ni513   1.890       .  S
O507        C517   1.276       .  A
O508       Ni513   1.898       .  S
O508        C518   1.277   1_554  A
O509       Ni514   1.940   1_556  S
O509        C518   1.286       .  A
O510       Ni514   1.936       .  S
O510        C517   1.286       .  A
O511       Ni514   1.907       .  S
O511        C516   1.279       .  A
O512       Ni514   1.901       .  S
O512        C515   1.277       .  A
Ni513      Ni514   2.384       .  S
C515       C2704   1.481       .  S
C516       C3953   1.491       .  S
C517       C2679   1.489       .  S
C518       C2690   1.480       .  S
O519       Ni527   1.924       .  S
O519        C529   1.284       .  A
O520       Ni527   1.926   1_545  S
O520        C530   1.285       .  A
O521       Ni527   1.898   1_545  S
O521        C531   1.276       .  A
O522       Ni527   1.894       .  S
O522        C532   1.276       .  A
O523       Ni528   1.921   1_565  S
O523        C532   1.282       .  A
O524       Ni528   1.929       .  S
O524        C531   1.283       .  A
O525       Ni528   1.921       .  S
O525        C530   1.281       .  A
O526       Ni528   1.916   1_565  S
O526        C529   1.280       .  A
Ni527      Ni528   2.387   1_565  S
C529       C2665   1.488       .  S
C530       C2735   1.500       .  S
C531       C2707   1.468       .  S
C532       C2648   1.469       .  S
O533       Ni541   1.933       .  S
O533        C543   1.285       .  A
O534       Ni541   1.936   1_545  S
O534        C544   1.286   1_545  A
O535       Ni541   1.892       .  S
O535        C545   1.273       .  A
O536       Ni541   1.897   1_655  S
O536        C546   1.277       .  A
O537       Ni542   1.938   1_655  S
O537        C546   1.286       .  A
O538       Ni542   1.933       .  S
O538        C545   1.287       .  A
O539       Ni542   1.905       .  S
O539        C544   1.278       .  A
O540       Ni542   1.897       .  S
O540        C543   1.276       .  A
Ni541      Ni542   2.387       .  S
C543       C2634   1.471       .  S
C544       C2623   1.483   1_565  S
C545       C2609   1.487       .  S
C546       C2662   1.481       .  S
O547       Ni555   1.932       .  S
O547        C557   1.285       .  A
O548       Ni555   1.930       .  S
O548        C558   1.286   1_556  A
O549       Ni555   1.900   1_554  S
O549        C559   1.277       .  A
O550       Ni555   1.888       .  S
O550        C560   1.275       .  A
O551       Ni556   1.919       .  S
O551        C560   1.283       .  A
O552       Ni556   1.925   1_554  S
O552        C559   1.283       .  A
O553       Ni556   1.905   1_554  S
O553        C558   1.278       .  A
O554       Ni556   1.894       .  S
O554        C557   1.276       .  A
Ni555      Ni556   2.388       .  S
C557       C2592   1.471       .  S
C558       C3799   1.494       .  S
C559       C2637   1.468       .  S
C560       C2581   1.470       .  S
O561       Ni569   1.921       .  S
O561        C571   1.283       .  A
O562       Ni569   1.926       .  S
O562        C572   1.284       .  A
O563       Ni569   1.894       .  S
O563        C573   1.276       .  A
O564       Ni569   1.896       .  S
O564        C574   1.277       .  A
O565       Ni570   1.924       .  S
O565        C574   1.282       .  A
O566       Ni570   1.911       .  S
O566        C573   1.282       .  A
O567       Ni570   1.921       .  S
O567        C572   1.282       .  A
O568       Ni570   1.912       .  S
O568        C571   1.279       .  A
Ni569      Ni570   2.388       .  S
C571       C2567   1.477       .  S
C572       C2844   1.497       .  S
C573       C2550   1.468       .  S
C574       C2595   1.465   1_545  S
O575       Ni583   1.929       .  S
O575        C585   1.285       .  A
O576       Ni583   1.929       .  S
O576        C586   1.284       .  A
O577       Ni583   1.894   1_455  S
O577        C587   1.277       .  A
O578       Ni583   1.895       .  S
O578        C588   1.277       .  A
O579       Ni584   1.927       .  S
O579        C588   1.284       .  A
O580       Ni584   1.934   1_455  S
O580        C587   1.285       .  A
O581       Ni584   1.916       .  S
O581        C586   1.281       .  A
O582       Ni584   1.913       .  S
O582        C585   1.279       .  A
Ni583      Ni584   2.383       .  S
C585       C2693   1.489       .  S
C586       C2536   1.492       .  S
C587       C2564   1.481       .  S
C588       C2522   1.489       .  S
O589       Ni597   1.935       .  S
O589        C599   1.286       .  A
O590       Ni597   1.934       .  S
O590        C600   1.287       .  A
O591       Ni597   1.883       .  S
O591        C601   1.274       .  A
O592       Ni597   1.890       .  S
O592        C602   1.275   1_455  A
O593       Ni598   1.939   1_655  S
O593        C602   1.287       .  A
O594       Ni598   1.937       .  S
O594        C601   1.287       .  A
O595       Ni598   1.907       .  S
O595        C600   1.277       .  A
O596       Ni598   1.897       .  S
O596        C599   1.276       .  A
Ni597      Ni598   2.385       .  S
C599       C2508   1.478       .  S
C600       C2620   1.494       .  S
C601       C2483   1.484       .  S
C602       C2494   1.480       .  S
O603       Ni611   1.926       .  S
O603        C613   1.285       .  A
O604       Ni611   1.928       .  S
O604        C614   1.285       .  A
O605       Ni611   1.898       .  S
O605        C615   1.278   1_545  A
O606       Ni611   1.900       .  S
O606        C616   1.276       .  A
O607       Ni612   1.926       .  S
O607        C616   1.285       .  A
O608       Ni612   1.930       .  S
O608        C615   1.284   1_545  A
O609       Ni612   1.904       .  S
O609        C614   1.277       .  A
O610       Ni612   1.904       .  S
O610        C613   1.277       .  A
Ni611      Ni612   2.383       .  S
C613       C2497   1.477       .  S
C614       C2931   1.492       .  S
C615       C2469   1.483       .  S
C616       C2452   1.488       .  S
O617       Ni625   1.924       .  S
O617        C627   1.284       .  A
O618       Ni625   1.923       .  S
O618        C628   1.284       .  A
O619       Ni625   1.891       .  S
O619        C629   1.276       .  A
O620       Ni625   1.892       .  S
O620        C630   1.275       .  A
O621       Ni626   1.933       .  S
O621        C630   1.285       .  A
O622       Ni626   1.927       .  S
O622        C629   1.285       .  A
O623       Ni626   1.913       .  S
O623        C628   1.279       .  A
O624       Ni626   1.904       .  S
O624        C627   1.277       .  A
Ni625      Ni626   2.387       .  S
C627       C2466   1.475       .  S
C628       C3572   1.487       .  S
C629       C2427   1.477       .  S
C630       C2438   1.469       .  S
O631       Ni639   1.918       .  S
O631        C641   1.283       .  A
O632       Ni639   1.916       .  S
O632        C642   1.284       .  A
O633       Ni639   1.898       .  S
O633        C643   1.276       .  A
O634       Ni639   1.898       .  S
O634        C644   1.276       .  A
O635       Ni640   1.926       .  S
O635        C644   1.283       .  A
O636       Ni640   1.931       .  S
O636        C643   1.283       .  A
O637       Ni640   1.913       .  S
O637        C642   1.279       .  A
O638       Ni640   1.904       .  S
O638        C641   1.278       .  A
Ni639      Ni640   2.388       .  S
C641       C2413   1.477       .  S
C642       C3701   1.490       .  S
C643       C2511   1.467       .  S
C644       C2399   1.466       .  S
O645       Ni653   1.922       .  S
O645        C655   1.284       .  A
O646       Ni653   1.923   1_545  S
O646        C656   1.284       .  A
O647       Ni653   1.888       .  S
O647        C657   1.275       .  A
O648       Ni653   1.886   1_545  S
O648        C658   1.275       .  A
O649       Ni654   1.938       .  S
O649        C658   1.286       .  A
O650       Ni654   1.935   1_565  S
O650        C657   1.287       .  A
O651       Ni654   1.911       .  S
O651        C656   1.280       .  A
O652       Ni654   1.905   1_565  S
O652        C655   1.278       .  A
Ni653      Ni654   2.385   1_565  S
C655       C2385   1.480       .  S
C656       C3001   1.488       .  S
C657       C2371   1.488       .  S
C658       C2410   1.475       .  S
O659       Ni667   1.929       .  S
O659        C669   1.284       .  A
O660       Ni667   1.928   1_545  S
O660        C670   1.285   1_545  A
O661       Ni667   1.895   1_455  S
O661        C671   1.277       .  A
O662       Ni667   1.888       .  S
O662        C672   1.276       .  A
O663       Ni668   1.929       .  S
O663        C672   1.285       .  A
O664       Ni668   1.931   1_455  S
O664        C671   1.284       .  A
O665       Ni668   1.911   1_455  S
O665        C670   1.280   1_455  A
O666       Ni668   1.906       .  S
O666        C669   1.278       .  A
Ni667      Ni668   2.385       .  S
C669       C2441   1.475       .  S
C670       C2539   1.493   1_665  S
C671       C2382   1.477       .  S
C672       C2354   1.486       .  S
O673       Ni681   1.925       .  S
O673        C683   1.284       .  A
O674       Ni681   1.928       .  S
O674        C684   1.285       .  A
O675       Ni681   1.896       .  S
O675        C685   1.275       .  A
O676       Ni681   1.896       .  S
O676        C686   1.276       .  A
O677       Ni682   1.928       .  S
O677        C686   1.283       .  A
O678       Ni682   1.922       .  S
O678        C685   1.284       .  A
O679       Ni682   1.918       .  S
O679        C684   1.281       .  A
O680       Ni682   1.913       .  S
O680        C683   1.280       .  A
Ni681      Ni682   2.388       .  S
C683       C2340   1.484       .  S
C684       C2312   1.494       .  S
C685       C3505   1.469       .  S
C686       C2326   1.469       .  S
O687       Ni695   1.928       .  S
O687        C697   1.285       .  A
O688       Ni695   1.931       .  S
O688        C698   1.285       .  A
O689       Ni695   1.893       .  S
O689        C699   1.276       .  A
O690       Ni695   1.885       .  S
O690        C700   1.273       .  A
O691       Ni696   1.940       .  S
O691        C700   1.288       .  A
O692       Ni696   1.939       .  S
O692        C699   1.286       .  A
O693       Ni696   1.896       .  S
O693        C698   1.277       .  A
O694       Ni696   1.896       .  S
O694        C697   1.275       .  A
Ni695      Ni696   2.386       .  S
C697       C2329   1.472       .  S
C698       C2284   1.488       .  S
C699       C2298   1.474       .  S
C700       C3785   1.488       .  S
O701       Ni709   1.928       .  S
O701        C711   1.284       .  A
O702       Ni709   1.930       .  S
O702        C712   1.284       .  A
O703       Ni709   1.894       .  S
O703        C713   1.276       .  A
O704       Ni709   1.899       .  S
O704        C714   1.276       .  A
O705       Ni710   1.933       .  S
O705        C714   1.284       .  A
O706       Ni710   1.922       .  S
O706        C713   1.284       .  A
O707       Ni710   1.920       .  S
O707        C712   1.282       .  A
O708       Ni710   1.912       .  S
O708        C711   1.280       .  A
Ni709      Ni710   2.384       .  S
C711       C2270   1.487       .  S
C712       C2242   1.501       .  S
C713       C3099   1.480       .  S
C714       C2256   1.477       .  S
O715       Ni723   1.928       .  S
O715        C725   1.285       .  A
O716       Ni723   1.933       .  S
O716        C726   1.285       .  A
O717       Ni723   1.899       .  S
O717        C727   1.278       .  A
O718       Ni723   1.897       .  S
O718        C728   1.277       .  A
O719       Ni724   1.929       .  S
O719        C728   1.285       .  A
O720       Ni724   1.935       .  S
O720        C727   1.285       .  A
O721       Ni724   1.909       .  S
O721        C726   1.279       .  A
O722       Ni724   1.904       .  S
O722        C725   1.277       .  A
Ni723      Ni724   2.385       .  S
C725       C2259   1.481       .  S
C726       C2228   1.491       .  S
C727       C2343   1.483       .  S
C728       C2721   1.486       .  S
O729       Ni737   1.923       .  S
O729        C739   1.284       .  A
O730       Ni737   1.923       .  S
O730        C740   1.285       .  A
O731       Ni737   1.889       .  S
O731        C741   1.276       .  A
O732       Ni737   1.894       .  S
O732        C742   1.275       .  A
O733       Ni738   1.926       .  S
O733        C742   1.283       .  A
O734       Ni738   1.920       .  S
O734        C741   1.283       .  A
O735       Ni738   1.913       .  S
O735        C740   1.279       .  A
O736       Ni738   1.911       .  S
O736        C739   1.280       .  A
Ni737      Ni738   2.386       .  S
C739       C2301   1.487       .  S
C740       C2200   1.494       .  S
C741       C3729   1.472       .  S
C742       C2214   1.468       .  S
O743       Ni751   1.919       .  S
O743        C753   1.284       .  A
O744       Ni751   1.923       .  S
O744        C754   1.284       .  A
O745       Ni751   1.896       .  S
O745        C755   1.277       .  A
O746       Ni751   1.893       .  S
O746        C756   1.275       .  A
O747       Ni752   1.928       .  S
O747        C756   1.285       .  A
O748       Ni752   1.933       .  S
O748        C755   1.284       .  A
O749       Ni752   1.907       .  S
O749        C754   1.278       .  A
O750       Ni752   1.901       .  S
O750        C753   1.277       .  A
Ni751      Ni752   2.387       .  S
C753       C2217   1.480       .  S
C754       C2186   1.489       .  S
C755       C2273   1.475       .  S
C756       C2357   1.475       .  S
O757       Ni765   1.924       .  S
O757        C767   1.286       .  A
O758       Ni765   1.927       .  S
O758        C768   1.285       .  A
O759       Ni765   1.892       .  S
O759        C769   1.275       .  A
O760       Ni765   1.896       .  S
O760        C770   1.275       .  A
O761       Ni766   1.939       .  S
O761        C770   1.285       .  A
O762       Ni766   1.934       .  S
O762        C769   1.287       .  A
O763       Ni766   1.910       .  S
O763        C768   1.280       .  A
O764       Ni766   1.900       .  S
O764        C767   1.276       .  A
Ni765      Ni766   2.386       .  S
C767       C2172   1.484       .  S
C768       C2147   1.490       .  S
C769       C2368   1.480       .  S
C770       C2158   1.471       .  S
O771       Ni779   1.932       .  S
O771        C781   1.285       .  A
O772       Ni779   1.930       .  S
O772        C782   1.285       .  A
O773       Ni779   1.902       .  S
O773        C783   1.278       .  A
O774       Ni779   1.892       .  S
O774        C784   1.276       .  A
O775       Ni780   1.932       .  S
O775        C784   1.285       .  A
O776       Ni780   1.937       .  S
O776        C783   1.286       .  A
O777       Ni780   1.906       .  S
O777        C782   1.279       .  A
O778       Ni780   1.904       .  S
O778        C781   1.277       .  A
Ni779      Ni780   2.382       .  S
C781       C2161   1.487       .  S
C782       C2116   1.492       .  S
C783       C2130   1.488       .  S
C784       C3589   1.488       .  S
O785       Ni793   1.920       .  S
O785        C795   1.283       .  A
O786       Ni793   1.920       .  S
O786        C796   1.284       .  A
O787       Ni793   1.887       .  S
O787        C797   1.275       .  A
O788       Ni793   1.886       .  S
O788        C798   1.273       .  A
O789       Ni794   1.933       .  S
O789        C798   1.287       .  A
O790       Ni794   1.939       .  S
O790        C797   1.286       .  A
O791       Ni794   1.911       .  S
O791        C796   1.279       .  A
O792       Ni794   1.907       .  S
O792        C795   1.278       .  A
Ni793      Ni794   2.386       .  S
C795       C2102   1.475       .  S
C796       C2074   1.487       .  S
C797       C2088   1.475       .  S
C798       C3477   1.485       .  S
O799       Ni807   1.930       .  S
O799        C809   1.285       .  A
O800       Ni807   1.936       .  S
O800        C810   1.286       .  A
O801       Ni807   1.896       .  S
O801        C811   1.277       .  A
O802       Ni807   1.894       .  S
O802        C812   1.277       .  A
O803       Ni808   1.929       .  S
O803        C812   1.283       .  A
O804       Ni808   1.921       .  S
O804        C811   1.283       .  A
O805       Ni808   1.920       .  S
O805        C810   1.282       .  A
O806       Ni808   1.912       .  S
O806        C809   1.279       .  A
Ni807      Ni808   2.384       .  S
C809       C2133   1.484       .  S
C810       C2245   1.501       .  S
C811       C3281   1.484       .  S
C812       C2105   1.474       .  S
O813       Ni821   1.929       .  S
O813        C823   1.284       .  A
O814       Ni821   1.929       .  S
O814        C824   1.285       .  A
O815       Ni821   1.895       .  S
O815        C825   1.276       .  A
O816       Ni821   1.888       .  S
O816        C826   1.276       .  A
O817       Ni822   1.919       .  S
O817        C826   1.283       .  A
O818       Ni822   1.923       .  S
O818        C825   1.282       .  A
O819       Ni822   1.897       .  S
O819        C824   1.277       .  A
O820       Ni822   1.893       .  S
O820        C823   1.276       .  A
Ni821      Ni822   2.389       .  S
C823       C2063   1.470       .  S
C824       C2287   1.482       .  S
C825       C2175   1.466       .  S
C826       C2578   1.476       .  S
O827       Ni835   1.921       .  S
O827        C837   1.284       .  A
O828       Ni835   1.919       .  S
O828        C838   1.283       .  A
O829       Ni835   1.895       .  S
O829        C839   1.277       .  A
O830       Ni835   1.895       .  S
O830        C840   1.276       .  A
O831       Ni836   1.924       .  S
O831        C840   1.282       .  A
O832       Ni836   1.921       .  S
O832        C839   1.283       .  A
O833       Ni836   1.913       .  S
O833        C838   1.279       .  A
O834       Ni836   1.905       .  S
O834        C837   1.278       .  A
Ni835      Ni836   2.386       .  S
C837       C2091   1.477       .  S
C838       C2046   1.491       .  S
C839       C2805   1.480       .  S
C840       C2060   1.463       .  S
O841       Ni849   1.932       .  S
O841        C851   1.285       .  A
O842       Ni849   1.929       .  S
O842        C852   1.285       .  A
O843       Ni849   1.889       .  S
O843        C853   1.272       .  A
O844       Ni849   1.890       .  S
O844        C854   1.276       .  A
O845       Ni850   1.929       .  S
O845        C854   1.283       .  A
O846       Ni850   1.928       .  S
O846        C853   1.286       .  A
O847       Ni850   1.910       .  S
O847        C852   1.279       .  A
O848       Ni850   1.905       .  S
O848        C851   1.278       .  A
Ni849      Ni850   2.385       .  S
C851       C2032   1.479       .  S
C852       C2004   1.494       .  S
C853       C3561   1.482       .  S
C854       C2018   1.472       .  S
O855       Ni863   1.929       .  S
O855        C865   1.284       .  A
O856       Ni863   1.932       .  S
O856        C866   1.286       .  A
O857       Ni863   1.910       .  S
O857        C867   1.279       .  A
O858       Ni863   1.912       .  S
O858        C868   1.280       .  A
O859       Ni864   1.920       .  S
O859        C868   1.283       .  A
O860       Ni864   1.925       .  S
O860        C867   1.282       .  A
O861       Ni864   1.913       .  S
O861        C866   1.278       .  A
O862       Ni864   1.901       .  S
O862        C865   1.277       .  A
Ni863      Ni864   2.385       .  S
C865       C1990   1.472       .  S
C866       C1976   1.500       .  S
C867       C2035   1.472       .  S
C868       C3253   1.485       .  S
O869       Ni877   1.923       .  S
O869        C879   1.285       .  A
O870       Ni877   1.928       .  S
O870        C880   1.284       .  A
O871       Ni877   1.891       .  S
O871        C881   1.276       .  A
O872       Ni877   1.890       .  S
O872        C882   1.276       .  A
O873       Ni878   1.931       .  S
O873        C882   1.285       .  A
O874       Ni878   1.934       .  S
O874        C881   1.285       .  A
O875       Ni878   1.904       .  S
O875        C880   1.279       .  A
O876       Ni878   1.900       .  S
O876        C879   1.276       .  A
Ni877      Ni878   2.387       .  S
C879       C2021   1.476       .  S
C880       C2077   1.487       .  S
C881       C1962   1.479       .  S
C882       C3855   1.477       .  S
O883       Ni891   1.928       .  S
O883        C893   1.285       .  A
O884       Ni891   1.931       .  S
O884        C894   1.285       .  A
O885       Ni891   1.902       .  S
O885        C895   1.278       .  A
O886       Ni891   1.900       .  S
O886        C896   1.278       .  A
O887       Ni892   1.928       .  S
O887        C896   1.284       .  A
O888       Ni892   1.921       .  S
O888        C895   1.283       .  A
O889       Ni892   1.911       .  S
O889        C894   1.280       .  A
O890       Ni892   1.906       .  S
O890        C893   1.277       .  A
Ni891      Ni892   2.384       .  S
C893       C1948   1.475       .  S
C894       C2144   1.494       .  S
C895       C2987   1.485       .  S
C896       C1993   1.486       .  S
O897       Ni905   1.929       .  S
O897        C907   1.285       .  A
O898       Ni905   1.935       .  S
O898        C908   1.287       .  A
O899       Ni905   1.897       .  S
O899        C909   1.277       .  A
O900       Ni905   1.893       .  S
O900        C910   1.275       .  A
O901       Ni906   1.929       .  S
O901        C910   1.285       .  A
O902       Ni906   1.936       .  S
O902        C909   1.285       .  A
O903       Ni906   1.917       .  S
O903        C908   1.280       .  A
O904       Ni906   1.910       .  S
O904        C907   1.278       .  A
Ni905      Ni906   2.385       .  S
C907       C1937   1.483       .  S
C908       C1923   1.498       .  S
C909       C1951   1.486       .  S
C910       C2875   1.472       .  S
O911       Ni919   1.927       .  S
O911        C921   1.284       .  A
O912       Ni919   1.929       .  S
O912        C922   1.286       .  A
O913       Ni919   1.895       .  S
O913        C923   1.275       .  A
O914       Ni919   1.894       .  S
O914        C924   1.277       .  A
O915       Ni920   1.940       .  S
O915        C924   1.286       .  A
O916       Ni920   1.930       .  S
O916        C923   1.286       .  A
O917       Ni920   1.911       .  S
O917        C922   1.278       .  A
O918       Ni920   1.902       .  S
O918        C921   1.277       .  A
Ni919      Ni920   2.385       .  S
C921       C1965   1.475       .  S
C922       C1906   1.491       .  S
C923       C2606   1.483       .  S
C924       C1934   1.483       .  S
O925       Ni933   1.931       .  S
O925        C935   1.285       .  A
O926       Ni933   1.936       .  S
O926        C936   1.287       .  A
O927       Ni933   1.893       .  S
O927        C937   1.275       .  A
O928       Ni933   1.904       .  S
O928        C938   1.277       .  A
O929       Ni934   1.929       .  S
O929        C938   1.283       .  A
O930       Ni934   1.928       .  S
O930        C937   1.285       .  A
O931       Ni934   1.903       .  S
O931        C936   1.276       .  A
O932       Ni934   1.904       .  S
O932        C935   1.277       .  A
Ni933      Ni934   2.385       .  S
C935       C1895   1.477       .  S
C936       C1867   1.498       .  S
C937       C2749   1.480       .  S
C938       C1878   1.474       .  S
O939       Ni947   1.938       .  S
O939        C949   1.287       .  A
O940       Ni947   1.943       .  S
O940        C950   1.288       .  A
O941       Ni947   1.887       .  S
O941        C951   1.275       .  A
O942       Ni947   1.897       .  S
O942        C952   1.276       .  A
O943       Ni948   1.930       .  S
O943        C952   1.284       .  A
O944       Ni948   1.926       .  S
O944        C951   1.285       .  A
O945       Ni948   1.901       .  S
O945        C950   1.278       .  A
O946       Ni948   1.896       .  S
O946        C949   1.275       .  A
Ni947      Ni948   2.385       .  S
C949       C1850   1.482       .  S
C950       C2315   1.498       .  S
C951       C3155   1.478       .  S
C952       C1836   1.471       .  S
O953       Ni961   1.931       .  S
O953        C963   1.286       .  A
O954       Ni961   1.929       .  S
O954        C964   1.285       .  A
O955       Ni961   1.899       .  S
O955        C965   1.276       .  A
O956       Ni961   1.896       .  S
O956        C966   1.276       .  A
O957       Ni962   1.923       .  S
O957        C966   1.284       .  A
O958       Ni962   1.931       .  S
O958        C965   1.283       .  A
O959       Ni962   1.916       .  S
O959        C964   1.280       .  A
O960       Ni962   1.903       .  S
O960        C963   1.277       .  A
Ni961      Ni962   2.386       .  S
C963       C1881   1.491       .  S
C964       C1822   1.488       .  S
C965       C1853   1.468       .  S
C966       C2917   1.478       .  S
O967       Ni975   1.924       .  S
O967        C977   1.285       .  A
O968       Ni975   1.923       .  S
O968        C978   1.284       .  A
O969       Ni975   1.897       .  S
O969        C979   1.276       .  A
O970       Ni975   1.895       .  S
O970        C980   1.276       .  A
O971       Ni976   1.930       .  S
O971        C980   1.285       .  A
O972       Ni976   1.934       .  S
O972        C979   1.284       .  A
O973       Ni976   1.909       .  S
O973        C978   1.278       .  A
O974       Ni976   1.906       .  S
O974        C977   1.278       .  A
Ni975      Ni976   2.385       .  S
C977       C1811   1.483       .  S
C978       C2189   1.492       .  S
C979       C1892   1.471       .  S
C980       C2525   1.478       .  S
O981       Ni989   1.932       .  S
O981        C991   1.287       .  A
O982       Ni989   1.934       .  S
O982        C992   1.286       .  A
O983       Ni989   1.892       .  S
O983        C993   1.276       .  A
O984       Ni989   1.894       .  S
O984        C994   1.274       .  A
O985       Ni990   1.926       .  S
O985        C994   1.284       .  A
O986       Ni990   1.931       .  S
O986        C993   1.284       .  A
O987       Ni990   1.909       .  S
O987        C992   1.279       .  A
O988       Ni990   1.899       .  S
O988        C991   1.276       .  A
Ni989      Ni990   2.387       .  S
C991       C1839   1.488       .  S
C992       C1780   1.486       .  S
C993       C1794   1.473       .  S
C994       C3684   1.469       .  S
O995      Ni1003   1.929       .  S
O995       C1005   1.284       .  A
O996      Ni1003   1.929       .  S
O996       C1006   1.286       .  A
O997      Ni1003   1.894       .  S
O997       C1007   1.276       .  A
O998      Ni1003   1.898       .  S
O998       C1008   1.277       .  A
O999      Ni1004   1.931       .  S
O999       C1008   1.284       .  A
O1000     Ni1004   1.925       .  S
O1000      C1007   1.285       .  A
O1001     Ni1004   1.901       .  S
O1001      C1006   1.276       .  A
O1002     Ni1004   1.898       .  S
O1002      C1005   1.276       .  A
Ni1003    Ni1004   2.387       .  S
C1005      C1797   1.468       .  S
C1006      C1766   1.491       .  S
C1007      C3897   1.483       .  S
C1008      C1808   1.474       .  S
O1009     Ni1017   1.919       .  S
O1009      C1019   1.283       .  A
O1010     Ni1017   1.917       .  S
O1010      C1020   1.283       .  A
O1011     Ni1017   1.906       .  S
O1011      C1021   1.278       .  A
O1012     Ni1017   1.904       .  S
O1012      C1022   1.278       .  A
O1013     Ni1018   1.921       .  S
O1013      C1022   1.281       .  A
O1014     Ni1018   1.914       .  S
O1014      C1021   1.283       .  A
O1015     Ni1018   1.915       .  S
O1015      C1020   1.280       .  A
O1016     Ni1018   1.911       .  S
O1016      C1019   1.279       .  A
Ni1017    Ni1018   2.388       .  S
C1019      C1752   1.480       .  S
C1020      C2049   1.486       .  S
C1021      C2945   1.481       .  S
C1022      C1741   1.465       .  S
O1023     Ni1031   1.931       .  S
O1023      C1033   1.285       .  A
O1024     Ni1031   1.932       .  S
O1024      C1034   1.286       .  A
O1025     Ni1031   1.894       .  S
O1025      C1035   1.276       .  A
O1026     Ni1031   1.891       .  S
O1026      C1036   1.274       .  A
O1027     Ni1032   1.933       .  S
O1027      C1036   1.286       .  A
O1028     Ni1032   1.935       .  S
O1028      C1035   1.285       .  A
O1029     Ni1032   1.910       .  S
O1029      C1034   1.279       .  A
O1030     Ni1032   1.899       .  S
O1030      C1033   1.276       .  A
Ni1031    Ni1032   2.386       .  S
C1033      C1738   1.478       .  S
C1034      C1783   1.496       .  S
C1035      C1727   1.477       .  S
C1036      C2396   1.476       .  S
O1037     Ni1045   1.929       .  S
O1037      C1047   1.284       .  A
O1038     Ni1045   1.932       .  S
O1038      C1048   1.285       .  A
O1039     Ni1045   1.903       .  S
O1039      C1049   1.278       .  A
O1040     Ni1045   1.896       .  S
O1040      C1050   1.278       .  A
O1041     Ni1046   1.925       .  S
O1041      C1050   1.283       .  A
O1042     Ni1046   1.927       .  S
O1042      C1049   1.283       .  A
O1043     Ni1046   1.906       .  S
O1043      C1048   1.279       .  A
O1044     Ni1046   1.901       .  S
O1044      C1047   1.278       .  A
Ni1045    Ni1046   2.384       .  S
C1047      C1713   1.477       .  S
C1048      C1696   1.493       .  S
C1049      C1755   1.477       .  S
C1050      C3138   1.487       .  S
O1051     Ni1059   1.920       .  S
O1051      C1061   1.283       .  A
O1052     Ni1059   1.920       .  S
O1052      C1062   1.283       .  A
O1053     Ni1059   1.891       .  S
O1053      C1063   1.276       .  A
O1054     Ni1059   1.895       .  S
O1054      C1064   1.276       .  A
O1055     Ni1060   1.931       .  S
O1055      C1064   1.284       .  A
O1056     Ni1060   1.922       .  S
O1056      C1063   1.283       .  A
O1057     Ni1060   1.916       .  S
O1057      C1062   1.280       .  A
O1058     Ni1060   1.905       .  S
O1058      C1061   1.279       .  A
Ni1059    Ni1060   2.388       .  S
C1061      C1685   1.480       .  S
C1062      C1864   1.485       .  S
C1063      C3435   1.478       .  S
C1064      C1710   1.468       .  S
O1065     Ni1073   1.915       .  S
O1065      C1075   1.281       .  A
O1066     Ni1073   1.921       .  S
O1066      C1076   1.282       .  A
O1067     Ni1073   1.894       .  S
O1067      C1077   1.276       .  A
O1068     Ni1073   1.894       .  S
O1068      C1078   1.275       .  A
O1069     Ni1074   1.926       .  S
O1069      C1078   1.284       .  A
O1070     Ni1074   1.929       .  S
O1070      C1077   1.284       .  A
O1071     Ni1074   1.907       .  S
O1071      C1076   1.280       .  A
O1072     Ni1074   1.904       .  S
O1072      C1075   1.278       .  A
Ni1073    Ni1074   2.389       .  S
C1075      C1668   1.470       .  S
C1076      C2119   1.486       .  S
C1077      C1682   1.469       .  S
C1078      C3981   1.471       .  S
O1079     Ni1087   1.927       .  S
O1079      C1089   1.285       .  A
O1080     Ni1087   1.928       .  S
O1080      C1090   1.285       .  A
O1081     Ni1087   1.890       .  S
O1081      C1091   1.277       .  A
O1082     Ni1087   1.893       .  S
O1082      C1092   1.277       .  A
O1083     Ni1088   1.918       .  S
O1083      C1092   1.282       .  A
O1084     Ni1088   1.913       .  S
O1084      C1091   1.281       .  A
O1085     Ni1088   1.908       .  S
O1085      C1090   1.278       .  A
O1086     Ni1088   1.905       .  S
O1086      C1089   1.278       .  A
Ni1087    Ni1088   2.386       .  S
C1089      C1724   1.481       .  S
C1090      C1654   1.492       .  S
C1091      C2553   1.476       .  S
C1092      C1671   1.469       .  S
O1093     Ni1101   1.932       .  S
O1093      C1103   1.286       .  A
O1094     Ni1101   1.933       .  S
O1094      C1104   1.286       .  A
O1095     Ni1101   1.892       .  S
O1095      C1105   1.276       .  A
O1096     Ni1101   1.895       .  S
O1096      C1106   1.276       .  A
O1097     Ni1102   1.936       .  S
O1097      C1106   1.286       .  A
O1098     Ni1102   1.932       .  S
O1098      C1105   1.285       .  A
O1099     Ni1102   1.905       .  S
O1099      C1104   1.277       .  A
O1100     Ni1102   1.900       .  S
O1100      C1103   1.276       .  A
Ni1101    Ni1102   2.383       .  S
C1103      C1640   1.483       .  S
C1104      C1657   1.492       .  S
C1105      C2830   1.489       .  S
C1106      C1626   1.481       .  S
O1107     Ni1115   1.933       .  S
O1107      C1117   1.286       .  A
O1108     Ni1115   1.937       .  S
O1108      C1118   1.287       .  A
O1109     Ni1115   1.897       .  S
O1109      C1119   1.276       .  A
O1110     Ni1115   1.897       .  S
O1110      C1120   1.275       .  A
O1111     Ni1116   1.926       .  S
O1111      C1120   1.284       .  A
O1112     Ni1116   1.931       .  S
O1112      C1119   1.284       .  A
O1113     Ni1116   1.908       .  S
O1113      C1118   1.278       .  A
O1114     Ni1116   1.899       .  S
O1114      C1117   1.276       .  A
Ni1115    Ni1116   2.388       .  S
C1117      C1629   1.479       .  S
C1118      C1979   1.491       .  S
C1119      C1615   1.466       .  S
C1120      C3393   1.467       .  S
O1121     Ni1129   1.929       .  S
O1121      C1131   1.284       .  A
O1122     Ni1129   1.936       .  S
O1122      C1132   1.287       .  A
O1123     Ni1129   1.888       .  S
O1123      C1133   1.274       .  A
O1124     Ni1129   1.895       .  S
O1124      C1134   1.276       .  A
O1125     Ni1130   1.930       .  S
O1125      C1134   1.283       .  A
O1126     Ni1130   1.929       .  S
O1126      C1133   1.285       .  A
O1127     Ni1130   1.903       .  S
O1127      C1132   1.277       .  A
O1128     Ni1130   1.898       .  S
O1128      C1131   1.276       .  A
Ni1129    Ni1130   2.388       .  S
C1131      C1598   1.474       .  S
C1132      C1909   1.496       .  S
C1133      C2480   1.474       .  S
C1134      C1587   1.470       .  S
O1135     Ni1143   1.919       .  S
O1135      C1145   1.284       .  A
O1136     Ni1143   1.921       .  S
O1136      C1146   1.283       .  A
O1137     Ni1143   1.896       .  S
O1137      C1147   1.276       .  A
O1138     Ni1143   1.894       .  S
O1138      C1148   1.274       .  A
O1139     Ni1144   1.928       .  S
O1139      C1148   1.286       .  A
O1140     Ni1144   1.932       .  S
O1140      C1147   1.284       .  A
O1141     Ni1144   1.907       .  S
O1141      C1146   1.279       .  A
O1142     Ni1144   1.905       .  S
O1142      C1145   1.277       .  A
Ni1143    Ni1144   2.385       .  S
C1145      C1584   1.483       .  S
C1146      C1573   1.486       .  S
C1147      C1643   1.472       .  S
C1148      C3015   1.485       .  S
O1149     Ni1157   1.938       .  S
O1149      C1159   1.287       .  A
O1150     Ni1157   1.940       .  S
O1150      C1160   1.287       .  A
O1151     Ni1157   1.886       .  S
O1151      C1161   1.275       .  A
O1152     Ni1157   1.894       .  S
O1152      C1162   1.275       .  A
O1153     Ni1158   1.933       .  S
O1153      C1162   1.286       .  A
O1154     Ni1158   1.935       .  S
O1154      C1161   1.286       .  A
O1155     Ni1158   1.899       .  S
O1155      C1160   1.277       .  A
O1156     Ni1158   1.894       .  S
O1156      C1159   1.276       .  A
Ni1157    Ni1158   2.386       .  S
C1159      C1612   1.481       .  S
C1160      C1545   1.492       .  S
C1161      C3939   1.482       .  S
C1162      C1559   1.474       .  S
O1163     Ni1171   1.930       .  S
O1163      C1173   1.285       .  A
O1164     Ni1171   1.932       .  S
O1164      C1174   1.286       .  A
O1165     Ni1171   1.897       .  S
O1165      C1175   1.276       .  A
O1166     Ni1171   1.900       .  S
O1166      C1176   1.276       .  A
O1167     Ni1172   1.922       .  S
O1167      C1176   1.284       .  A
O1168     Ni1172   1.924       .  S
O1168      C1175   1.282       .  A
O1169     Ni1172   1.906       .  S
O1169      C1174   1.279       .  A
O1170     Ni1172   1.898       .  S
O1170      C1173   1.277       .  A
Ni1171    Ni1172   2.389       .  S
C1173      C1556   1.482       .  S
C1174      C1699   1.490       .  S
C1175      C1601   1.464       .  S
C1176      C3617   1.467       .  S
O1177     Ni1185   1.928       .  S
O1177      C1187   1.284       .  A
O1178     Ni1185   1.925       .  S
O1178      C1188   1.284       .  A
O1179     Ni1185   1.888       .  S
O1179      C1189   1.276       .  A
O1180     Ni1185   1.896       .  S
O1180      C1190   1.277       .  A
O1181     Ni1186   1.933       .  S
O1181      C1190   1.285       .  A
O1182     Ni1186   1.930       .  S
O1182      C1189   1.285       .  A
O1183     Ni1186   1.907       .  S
O1183      C1188   1.278       .  A
O1184     Ni1186   1.901       .  S
O1184      C1187   1.277       .  A
Ni1185    Ni1186   2.387       .  S
C1187      C1528   1.473       .  S
C1188      C1769   1.483       .  S
C1189      C3337   1.485       .  S
C1190      C1514   1.476       .  S
O1191     Ni1199   1.920       .  S
O1191      C1201   1.284       .  A
O1192     Ni1199   1.921       .  S
O1192      C1202   1.283       .  A
O1193     Ni1199   1.894       .  S
O1193      C1203   1.275       .  A
O1194     Ni1199   1.894       .  S
O1194      C1204   1.275       .  A
O1195     Ni1200   1.929       .  S
O1195      C1204   1.285       .  A
O1196     Ni1200   1.932       .  S
O1196      C1203   1.284       .  A
O1197     Ni1200   1.906       .  S
O1197      C1202   1.279       .  A
O1198     Ni1200   1.898       .  S
O1198      C1201   1.275       .  A
Ni1199    Ni1200   2.389       .  S
C1201      C1500   1.471       .  S
C1202      C1570   1.484       .  S
C1203      C1531   1.467       .  S
C1204      C3183   1.473       .  S
O1205     Ni1213   1.930       .  S
O1205      C1215   1.284       .  A
O1206     Ni1213   1.930       .  S
O1206      C1216   1.285       .  A
O1207     Ni1213   1.900       .  S
O1207      C1217   1.278       .  A
O1208     Ni1213   1.894       .  S
O1208      C1218   1.275       .  A
O1209     Ni1214   1.928       .  S
O1209      C1218   1.286       .  A
O1210     Ni1214   1.928       .  S
O1210      C1217   1.284       .  A
O1211     Ni1214   1.901       .  S
O1211      C1216   1.278       .  A
O1212     Ni1214   1.900       .  S
O1212      C1215   1.276       .  A
Ni1213    Ni1214   2.385       .  S
C1215      C1517   1.469       .  S
C1216      C1472   1.489       .  S
C1217      C1489   1.483       .  S
C1218      C2777   1.484       .  S
O1219     Ni1227   1.923       .  S
O1219      C1229   1.284       .  A
O1220     Ni1227   1.922       .  S
O1220      C1230   1.284       .  A
O1221     Ni1227   1.901       .  S
O1221      C1231   1.277       .  A
O1222     Ni1227   1.896       .  S
O1222      C1232   1.276       .  A
O1223     Ni1228   1.926       .  S
O1223      C1232   1.282       .  A
O1224     Ni1228   1.922       .  S
O1224      C1231   1.284       .  A
O1225     Ni1228   1.918       .  S
O1225      C1230   1.281       .  A
O1226     Ni1228   1.910       .  S
O1226      C1229   1.279       .  A
Ni1227    Ni1228   2.387       .  S
C1229      C1486   1.481       .  S
C1230      C1542   1.492       .  S
C1231      C2676   1.479       .  S
C1232      C1458   1.462       .  S
O1233     Ni1241   1.932       .  S
O1233      C1243   1.285       .  A
O1234     Ni1241   1.938       .  S
O1234      C1244   1.287       .  A
O1235     Ni1241   1.902       .  S
O1235      C1245   1.278       .  A
O1236     Ni1241   1.897       .  S
O1236      C1246   1.276       .  A
O1237     Ni1242   1.930       .  S
O1237      C1246   1.286       .  A
O1238     Ni1242   1.935       .  S
O1238      C1245   1.285       .  A
O1239     Ni1242   1.902       .  S
O1239      C1244   1.277       .  A
O1240     Ni1242   1.898       .  S
O1240      C1243   1.277       .  A
Ni1241    Ni1242   2.385       .  S
C1243      C1461   1.481       .  S
C1244      C1825   1.497       .  S
C1245      C1444   1.479       .  S
C1246      C2455   1.481       .  S
O1247     Ni1255   1.929       .  S
O1247      C1257   1.285       .  A
O1248     Ni1255   1.927       .  S
O1248      C1258   1.284       .  A
O1249     Ni1255   1.891       .  S
O1249      C1259   1.275       .  A
O1250     Ni1255   1.891       .  S
O1250      C1260   1.276       .  A
O1251     Ni1256   1.930       .  S
O1251      C1260   1.284       .  A
O1252     Ni1256   1.925       .  S
O1252      C1259   1.285       .  A
O1253     Ni1256   1.913       .  S
O1253      C1258   1.280       .  A
O1254     Ni1256   1.910       .  S
O1254      C1257   1.279       .  A
Ni1255    Ni1256   2.384       .  S
C1257      C1447   1.491       .  S
C1258      C1430   1.492       .  S
C1259      C3659   1.482       .  S
C1260      C1503   1.475       .  S
O1261     Ni1269   1.926       .  S
O1261      C1271   1.284       .  A
O1262     Ni1269   1.929       .  S
O1262      C1272   1.286       .  A
O1263     Ni1269   1.896       .  S
O1263      C1273   1.277       .  A
O1264     Ni1269   1.893       .  S
O1264      C1274   1.276       .  A
O1265     Ni1270   1.922       .  S
O1265      C1274   1.283       .  A
O1266     Ni1270   1.930       .  S
O1266      C1273   1.284       .  A
O1267     Ni1270   1.912       .  S
O1267      C1272   1.279       .  A
O1268     Ni1270   1.907       .  S
O1268      C1271   1.280       .  A
Ni1269    Ni1270   2.383       .  S
C1271      C1419   1.489       .  S
C1272      C2231   1.497       .  S
C1273      C1402   1.474       .  S
C1274      C2651   1.483       .  S
O1275     Ni1283   1.913       .  S
O1275      C1285   1.282       .  A
O1276     Ni1283   1.915       .  S
O1276      C1286   1.282       .  A
O1277     Ni1283   1.893       .  S
O1277      C1287   1.275       .  A
O1278     Ni1283   1.896       .  S
O1278      C1288   1.277       .  A
O1279     Ni1284   1.921       .  S
O1279      C1288   1.283       .  A
O1280     Ni1284   1.926       .  S
O1280      C1287   1.282       .  A
O1281     Ni1284   1.914       .  S
O1281      C1286   1.280       .  A
O1282     Ni1284   1.906       .  S
O1282      C1285   1.278       .  A
Ni1283    Ni1284   2.390       .  S
C1285      C1388   1.468       .  S
C1286      C1475   1.479   1_565  S
C1287      C1374   1.460       .  S
C1288      C3057   1.480       .  S
O1289     Ni1297   1.927       .  S
O1289      C1299   1.285       .  A
O1290     Ni1297   1.932       .  S
O1290      C1300   1.285       .  A
O1291     Ni1297   1.894       .  S
O1291      C1301   1.276       .  A
O1292     Ni1297   1.900       .  S
O1292      C1302   1.276       .  A
O1293     Ni1298   1.928       .  S
O1293      C1302   1.283       .  A
O1294     Ni1298   1.924       .  S
O1294      C1301   1.284       .  A
O1295     Ni1298   1.904       .  S
O1295      C1300   1.278       .  A
O1296     Ni1298   1.898       .  S
O1296      C1299   1.277       .  A
Ni1297    Ni1298   2.388       .  S
C1299      C1377   1.478       .  S
C1300      C2007   1.487       .  S
C1301      C2424   1.482       .  S
C1302      C1416   1.467       .  S
O1303     Ni1311   1.927       .  S
O1303      C1313   1.284       .  A
O1304     Ni1311   1.926       .  S
O1304      C1314   1.284       .  A
O1305     Ni1311   1.894       .  S
O1305      C1315   1.276       .  A
O1306     Ni1311   1.896       .  S
O1306      C1316   1.277       .  A
O1307     Ni1312   1.932       .  S
O1307      C1316   1.285       .  A
O1308     Ni1312   1.921       .  S
O1308      C1315   1.284       .  A
O1309     Ni1312   1.912       .  S
O1309      C1314   1.280       .  A
O1310     Ni1312   1.904       .  S
O1310      C1313   1.278       .  A
Ni1311    Ni1312   2.385       .  S
C1313      C1405   1.478       .  S
C1314      C1433   1.490       .  S
C1315      C3813   1.481       .  S
C1316      C1363   1.482       .  S
O1317     Ni1325   1.935       .  S
O1317      C1327   1.285       .  A
O1318     Ni1325   1.933       .  S
O1318      C1328   1.286       .  A
O1319     Ni1325   1.887       .  S
O1319      C1329   1.275       .  A
O1320     Ni1325   1.892       .  S
O1320      C1330   1.277       .  A
O1321     Ni1326   1.922       .  S
O1321      C1330   1.283       .  A
O1322     Ni1326   1.921       .  S
O1322      C1329   1.283       .  A
O1323     Ni1326   1.903       .  S
O1323      C1328   1.277       .  A
O1324     Ni1326   1.905       .  S
O1324      C1327   1.278       .  A
Ni1325    Ni1326   2.385       .  S
C1327      C1346   1.486       .  S
C1328      C2203   1.487       .  S
C1329      C3225   1.479       .  S
C1330      C1391   1.473       .  S
O1331     Ni1339   1.920       .  S
O1331      C1341   1.283       .  A
O1332     Ni1339   1.933       .  S
O1332      C1342   1.284       .  A
O1333     Ni1339   1.914       .  S
O1333      C1343   1.280       .  A
O1334     Ni1339   1.903       .  S
O1334      C1344   1.276       .  A
O1335     Ni1340   1.931       .  S
O1335      C1344   1.286       .  A
O1336     Ni1340   1.935       .  S
O1336      C1343   1.285       .  A
O1337     Ni1340   1.901       .  S
O1337      C1342   1.277       .  A
O1338     Ni1340   1.898       .  S
O1338      C1341   1.277       .  A
Ni1339    Ni1340   2.389       .  S
C1341      C3348   1.476       .  S
C1342      C1349   1.473       .  S
C1343      C1920   1.486       .  S
C1344      C1360   1.477       .  S
C1345      C1346   1.407       .  A
C1345      C1350   1.400       .  A
C1345      H1352   1.084       .  S
C1346      C1347   1.413       .  A
C1347      C1348   1.410       .  A
C1347      N1354   1.438       .  S
C1348      C1349   1.405       .  A
C1348      H1353   1.084       .  S
C1349      C1350   1.413       .  A
C1350      N1351   1.439       .  S
N1351      H1355   1.046       .  S
N1351      H1356   1.044       .  S
N1354      H1357   1.045       .  S
N1354      H1358   1.046       .  S
C1359      C1360   1.397       .  A
C1359      C1364   1.401       .  A
C1359      H1366   1.084       .  S
C1360      C1361   1.419       .  A
C1361      C1362   1.403       .  A
C1361      N1368   1.433       .  S
C1362      C1363   1.403       .  A
C1362      H1367   1.084       .  S
C1363      C1364   1.418       .  A
C1364      N1365   1.439       .  S
N1365      H1369   1.046       .  S
N1365      H1370   1.046       .  S
N1368      H1371   1.046       .  S
N1368      H1372   1.044       .  S
C1373      C1374   1.402       .  A
C1373      C1378   1.405       .  A
C1373      H1380   1.084       .  S
C1374      C1375   1.403       .  A
C1375      C1376   1.401       .  A
C1375      N1382   1.439       .  S
C1376      C1377   1.408       .  A
C1376      H1381   1.083       .  S
C1377      C1378   1.412       .  A
C1378      N1379   1.438       .  S
N1379      H1383   1.046       .  S
N1379      H1384   1.046       .  S
N1382      H1385   1.045       .  S
N1382      H1386   1.046       .  S
C1387      C1388   1.405       .  A
C1387      C1392   1.407       .  A
C1387      H1394   1.084       .  S
C1388      C1389   1.405       .  A
C1389      C1390   1.393       .  A
C1389      N1396   1.433       .  S
C1390      C1391   1.405       .  A
C1390      H1395   1.084       .  S
C1391      C1392   1.411       .  A
C1392      N1393   1.437       .  S
N1393      H1397   1.046       .  S
N1393      H1398   1.046       .  S
N1396      H1399   1.046       .  S
N1396      H1400   1.046       .  S
C1401      C1402   1.399       .  A
C1401      C1406   1.404       .  A
C1401      H1408   1.084       .  S
C1402      C1403   1.416       .  A
C1403      C1404   1.403       .  A
C1403      N1410   1.439       .  S
C1404      C1405   1.400       .  A
C1404      H1409   1.084       .  S
C1405      C1406   1.414       .  A
C1406      N1407   1.432       .  S
N1407      H1411   1.046       .  S
N1407      H1412   1.046       .  S
N1410      H1413   1.046       .  S
N1410      H1414   1.046       .  S
C1415      C1416   1.402       .  A
C1415      C1420   1.403       .  A
C1415      H1422   1.085       .  S
C1416      C1417   1.410       .  A
C1417      C1418   1.401       .  A
C1417      N1424   1.439       .  S
C1418      C1419   1.410       .  A
C1418      H1423   1.083       .  S
C1419      C1420   1.412       .  A
C1420      N1421   1.432       .  S
N1421      H1425   1.046       .  S
N1421      H1426   1.046       .  S
N1424      H1427   1.043       .  S
N1424      H1428   1.045       .  S
C1429      C1430   1.408       .  A
C1429      C1434   1.404       .  A
C1429      H1436   1.083       .  S
C1430      C1431   1.412       .  A
C1431      C1432   1.406       .  A
C1431      N1438   1.432       .  S
C1432      C1433   1.409       .  A
C1432      H1437   1.084       .  S
C1433      C1434   1.410       .  A
C1434      N1435   1.432       .  S
N1435      H1439   1.046       .  S
N1435      H1440   1.046       .  S
N1438      H1441   1.046       .  S
N1438      H1442   1.046       .  S
C1443      C1444   1.404       .  A
C1443      C1448   1.405       .  A
C1443      H1450   1.084       .  S
C1444      C1445   1.409       .  A
C1445      C1446   1.403       .  A
C1445      N1452   1.432       .  S
C1446      C1447   1.412       .  A
C1446      H1451   1.084       .  S
C1447      C1448   1.415       .  A
C1448      N1449   1.438       .  S
N1449      H1453   1.046       .  S
N1449      H1454   1.045       .  S
N1452      H1455   1.045       .  S
N1452      H1456   1.046       .  S
C1457      C1458   1.401       .  A
C1457      C1462   1.406       .  A
C1457      H1464   1.084       .  S
C1458      C1459   1.403       .  A
C1459      C1460   1.402       .  A
C1459      N1466   1.438       .  S
C1460      C1461   1.408       .  A
C1460      H1465   1.084       .  S
C1461      C1462   1.414       .  A
C1462      N1463   1.437       .  S
N1463      H1467   1.046       .  S
N1463      H1468   1.045       .  S
N1466      H1469   1.046       .  S
N1466      H1470   1.046       .  S
C1471      C1472   1.410       .  A
C1471      C1476   1.401       .  A
C1471      H1478   1.083       .  S
C1472      C1473   1.413       .  A
C1473      C1474   1.405       .  A
C1473      N1480   1.432       .  S
C1474      C1475   1.405       .  A
C1474      H1479   1.084       .  S
C1475      C1476   1.406       .  A
C1476      N1477   1.433   1_545  S
N1477      H1481   1.046       .  S
N1477      H1482   1.046       .  S
N1480      H1483   1.046       .  S
N1480      H1484   1.046       .  S
C1485      C1486   1.407       .  A
C1485      C1490   1.408       .  A
C1485      H1492   1.084       .  S
C1486      C1487   1.411       .  A
C1487      C1488   1.402       .  A
C1487      N1494   1.439       .  S
C1488      C1489   1.407       .  A
C1488      H1493   1.084       .  S
C1489      C1490   1.411       .  A
C1490      N1491   1.437       .  S
N1491      H1495   1.046       .  S
N1491      H1496   1.046       .  S
N1494      H1497   1.045       .  S
N1494      H1498   1.046       .  S
C1499      C1500   1.396       .  A
C1499      C1504   1.396       .  A
C1499      H1506   1.084       .  S
C1500      C1501   1.418       .  A
C1501      C1502   1.401       .  A
C1501      N1508   1.433       .  S
C1502      C1503   1.402       .  A
C1502      H1507   1.084       .  S
C1503      C1504   1.417       .  A
C1504      N1505   1.439       .  S
N1505      H1509   1.046       .  S
N1505      H1510   1.045       .  S
N1508      H1511   1.046       .  S
N1508      H1512   1.044       .  S
C1513      C1514   1.403       .  A
C1513      C1518   1.394       .  A
C1513      H1520   1.084       .  S
C1514      C1515   1.414       .  A
C1515      C1516   1.409       .  A
C1515      N1522   1.437       .  S
C1516      C1517   1.401       .  A
C1516      H1521   1.084       .  S
C1517      C1518   1.411       .  A
C1518      N1519   1.434       .  S
N1519      H1523   1.045       .  S
N1519      H1524   1.046       .  S
N1522      H1525   1.044       .  S
N1522      H1526   1.046       .  S
C1527      C1528   1.403       .  A
C1527      C1532   1.401       .  A
C1527      H1534   1.082       .  S
C1528      C1529   1.414       .  A
C1529      C1530   1.401       .  A
C1529      N1536   1.433       .  S
C1530      C1531   1.403       .  A
C1530      H1535   1.084       .  S
C1531      C1532   1.407       .  A
C1532      N1533   1.438       .  S
N1533      H1537   1.046       .  S
N1533      H1538   1.046       .  S
N1536      H1539   1.046       .  S
N1536      H1540   1.045       .  S
C1541      C1542   1.410   1_455  A
C1541      C1546   1.408       .  A
C1541      H1548   1.083       .  S
C1542      C1543   1.411       .  A
C1543      C1544   1.402   1_655  A
C1543      N1550   1.433       .  S
C1544      C1545   1.409       .  A
C1544      H1549   1.084       .  S
C1545      C1546   1.409       .  A
C1546      N1547   1.432       .  S
N1547      H1551   1.046       .  S
N1547      H1552   1.046       .  S
N1550      H1553   1.046       .  S
N1550      H1554   1.046       .  S
C1555      C1556   1.410       .  A
C1555      C1560   1.405       .  A
C1555      H1562   1.083       .  S
C1556      C1557   1.409       .  A
C1557      C1558   1.402       .  A
C1557      N1564   1.433       .  S
C1558      C1559   1.407       .  A
C1558      H1563   1.084       .  S
C1559      C1560   1.405       .  A
C1560      N1561   1.437       .  S
N1561      H1565   1.046       .  S
N1561      H1566   1.046       .  S
N1564      H1567   1.046       .  S
N1564      H1568   1.046       .  S
C1569      C1570   1.406       .  A
C1569      C1574   1.400       .  A
C1569      H1576   1.084       .  S
C1570      C1571   1.412       .  A
C1571      C1572   1.406       .  A
C1571      N1578   1.438       .  S
C1572      C1573   1.409       .  A
C1572      H1577   1.083       .  S
C1573      C1574   1.409       .  A
C1574      N1575   1.432       .  S
N1575      H1579   1.046       .  S
N1575      H1580   1.046       .  S
N1578      H1581   1.046       .  S
N1578      H1582   1.046       .  S
C1583      C1584   1.403       .  A
C1583      C1588   1.399       .  A
C1583      H1590   1.084       .  S
C1584      C1585   1.424       .  A
C1585      C1586   1.402       .  A
C1585      N1592   1.432       .  S
C1586      C1587   1.398       .  A
C1586      H1591   1.084       .  S
C1587      C1588   1.412       .  A
C1588      N1589   1.439       .  S
N1589      H1593   1.046       .  S
N1589      H1594   1.046       .  S
N1592      H1595   1.046       .  S
N1592      H1596   1.044       .  S
C1597      C1598   1.405       .  A
C1597      C1602   1.398       .  A
C1597      H1604   1.084       .  S
C1598      C1599   1.410       .  A
C1599      C1600   1.405       .  A
C1599      N1606   1.438       .  S
C1600      C1601   1.403       .  A
C1600      H1605   1.084       .  S
C1601      C1602   1.413       .  A
C1602      N1603   1.440       .  S
N1603      H1607   1.046       .  S
N1603      H1608   1.044       .  S
N1606      H1609   1.045       .  S
N1606      H1610   1.046       .  S
C1611      C1612   1.408       .  A
C1611      C1616   1.402       .  A
C1611      H1618   1.084       .  S
C1612      C1613   1.409       .  A
C1613      C1614   1.406       .  A
C1613      N1620   1.432       .  S
C1614      C1615   1.404       .  A
C1614      H1619   1.084       .  S
C1615      C1616   1.405       .  A
C1616      N1617   1.438       .  S
N1617      H1621   1.046       .  S
N1617      H1622   1.046       .  S
N1620      H1623   1.046       .  S
N1620      H1624   1.046       .  S
C1625      C1626   1.401       .  A
C1625      C1630   1.409       .  A
C1625      H1632   1.084       .  S
C1626      C1627   1.416       .  A
C1627      C1628   1.400       .  A
C1627      N1634   1.433       .  S
C1628      C1629   1.398       .  A
C1628      H1633   1.084       .  S
C1629      C1630   1.418       .  A
C1630      N1631   1.438       .  S
N1631      H1635   1.046       .  S
N1631      H1636   1.046       .  S
N1634      H1637   1.046       .  S
N1634      H1638   1.046       .  S
C1639      C1640   1.401       .  A
C1639      C1644   1.399       .  A
C1639      H1646   1.084       .  S
C1640      C1641   1.421       .  A
C1641      C1642   1.408       .  A
C1641      N1648   1.438       .  S
C1642      C1643   1.398       .  A
C1642      H1647   1.084       .  S
C1643      C1644   1.410       .  A
C1644      N1645   1.434       .  S
N1645      H1649   1.046       .  S
N1645      H1650   1.046       .  S
N1648      H1651   1.046       .  S
N1648      H1652   1.046       .  S
C1653      C1654   1.403       .  A
C1653      C1658   1.407   1_556  A
C1653      H1660   1.083       .  S
C1654      C1655   1.419   1_556  A
C1655      C1656   1.407       .  A
C1655      N1662   1.438       .  S
C1656      C1657   1.402       .  A
C1656      H1661   1.083       .  S
C1657      C1658   1.420       .  A
C1658      N1659   1.439       .  S
N1659      H1663   1.046   1_554  S
N1659      H1664   1.046       .  S
N1662      H1665   1.046       .  S
N1662      H1666   1.046       .  S
C1667      C1668   1.406       .  A
C1667      C1672   1.404       .  A
C1667      H1674   1.084       .  S
C1668      C1669   1.410       .  A
C1669      C1670   1.398       .  A
C1669      N1676   1.438       .  S
C1670      C1671   1.404       .  A
C1670      H1675   1.084       .  S
C1671      C1672   1.407       .  A
C1672      N1673   1.437       .  S
N1673      H1677   1.046       .  S
N1673      H1678   1.046       .  S
N1676      H1679   1.045       .  S
N1676      H1680   1.046       .  S
C1681      C1682   1.403       .  A
C1681      C1686   1.397       .  A
C1681      H1688   1.083       .  S
C1682      C1683   1.405       .  A
C1683      C1684   1.407       .  A
C1683      N1690   1.437       .  S
C1684      C1685   1.410       .  A
C1684      H1689   1.083       .  S
C1685      C1686   1.409       .  A
C1686      N1687   1.433       .  S
N1687      H1691   1.046       .  S
N1687      H1692   1.046       .  S
N1690      H1693   1.046       .  S
N1690      H1694   1.046       .  S
C1695      C1696   1.410       .  A
C1695      C1700   1.406       .  A
C1695      H1702   1.083       .  S
C1696      C1697   1.413       .  A
C1697      C1698   1.408       .  A
C1697      N1704   1.438       .  S
C1698      C1699   1.409       .  A
C1698      H1703   1.083       .  S
C1699      C1700   1.411       .  A
C1700      N1701   1.438       .  S
N1701      H1705   1.046       .  S
N1701      H1706   1.045       .  S
N1704      H1707   1.046       .  S
N1704      H1708   1.046       .  S
C1709      C1710   1.405       .  A
C1709      C1714   1.410       .  A
C1709      H1716   1.084       .  S
C1710      C1711   1.413       .  A
C1711      C1712   1.396       .  A
C1711      N1718   1.440       .  S
C1712      C1713   1.403       .  A
C1712      H1717   1.084       .  S
C1713      C1714   1.412       .  A
C1714      N1715   1.438       .  S
N1715      H1719   1.046       .  S
N1715      H1720   1.045       .  S
N1718      H1721   1.043       .  S
N1718      H1722   1.046       .  S
C1723      C1724   1.409       .  A
C1723      C1728   1.401       .  A
C1723      H1730   1.084       .  S
C1724      C1725   1.410       .  A
C1725      C1726   1.403       .  A
C1725      N1732   1.438       .  S
C1726      C1727   1.407       .  A
C1726      H1731   1.084       .  S
C1727      C1728   1.409       .  A
C1728      N1729   1.432       .  S
N1729      H1733   1.045       .  S
N1729      H1734   1.045       .  S
N1732      H1735   1.046       .  S
N1732      H1736   1.045       .  S
C1737      C1738   1.403       .  A
C1737      C1742   1.399       .  A
C1737      H1744   1.084       .  S
C1738      C1739   1.417       .  A
C1739      C1740   1.403       .  A
C1739      N1746   1.439       .  S
C1740      C1741   1.398       .  A
C1740      H1745   1.084       .  S
C1741      C1742   1.411       .  A
C1742      N1743   1.433       .  S
N1743      H1747   1.045       .  S
N1743      H1748   1.045       .  S
N1746      H1749   1.046       .  S
N1746      H1750   1.046       .  S
C1751      C1752   1.401       .  A
C1751      C1756   1.398       .  A
C1751      H1758   1.084       .  S
C1752      C1753   1.416       .  A
C1753      C1754   1.409       .  A
C1753      N1760   1.438       .  S
C1754      C1755   1.402       .  A
C1754      H1759   1.084       .  S
C1755      C1756   1.411       .  A
C1756      N1757   1.433       .  S
N1757      H1761   1.046       .  S
N1757      H1762   1.046       .  S
N1760      H1763   1.046       .  S
N1760      H1764   1.046       .  S
C1765      C1766   1.404       .  A
C1765      C1770   1.404   1_556  A
C1765      H1772   1.083       .  S
C1766      C1767   1.422   1_556  A
C1767      C1768   1.406       .  A
C1767      N1774   1.438       .  S
C1768      C1769   1.400       .  A
C1768      H1773   1.084       .  S
C1769      C1770   1.415       .  A
C1770      N1771   1.439       .  S
N1771      H1775   1.046   1_554  S
N1771      H1776   1.046       .  S
N1774      H1777   1.046   1_554  S
N1774      H1778   1.046       .  S
C1779      C1780   1.405   1_455  A
C1779      C1784   1.403       .  A
C1779      H1786   1.084       .  S
C1780      C1781   1.409       .  A
C1781      C1782   1.411   1_655  A
C1781      N1788   1.438       .  S
C1782      C1783   1.413       .  A
C1782      H1787   1.083       .  S
C1783      C1784   1.412       .  A
C1784      N1785   1.432       .  S
N1785      H1789   1.046       .  S
N1785      H1790   1.046       .  S
N1788      H1791   1.046       .  S
N1788      H1792   1.046       .  S
C1793      C1794   1.401       .  A
C1793      C1798   1.394       .  A
C1793      H1800   1.085       .  S
C1794      C1795   1.412       .  A
C1795      C1796   1.410       .  A
C1795      N1802   1.437       .  S
C1796      C1797   1.404       .  A
C1796      H1801   1.084       .  S
C1797      C1798   1.416       .  A
C1798      N1799   1.441       .  S
N1799      H1803   1.046       .  S
N1799      H1804   1.041       .  S
N1802      H1805   1.045       .  S
N1802      H1806   1.046       .  S
C1807      C1808   1.400       .  A
C1807      C1812   1.410       .  A
C1807      H1814   1.084       .  S
C1808      C1809   1.410       .  A
C1809      C1810   1.397       .  A
C1809      N1816   1.433       .  S
C1810      C1811   1.401       .  A
C1810      H1815   1.084       .  S
C1811      C1812   1.420       .  A
C1812      N1813   1.438       .  S
N1813      H1817   1.046       .  S
N1813      H1818   1.046       .  S
N1816      H1819   1.046       .  S
N1816      H1820   1.046       .  S
C1821      C1822   1.400       .  A
C1821      C1826   1.407       .  A
C1821      H1828   1.084       .  S
C1822      C1823   1.416       .  A
C1823      C1824   1.410       .  A
C1823      N1830   1.438       .  S
C1824      C1825   1.406       .  A
C1824      H1829   1.083       .  S
C1825      C1826   1.421       .  A
C1826      N1827   1.438       .  S
N1827      H1831   1.046       .  S
N1827      H1832   1.046       .  S
N1830      H1833   1.046       .  S
N1830      H1834   1.046       .  S
C1835      C1836   1.396       .  A
C1835      C1840   1.407       .  A
C1835      H1842   1.084       .  S
C1836      C1837   1.415       .  A
C1837      C1838   1.396       .  A
C1837      N1844   1.434       .  S
C1838      C1839   1.403       .  A
C1838      H1843   1.084       .  S
C1839      C1840   1.423       .  A
C1840      N1841   1.438       .  S
N1841      H1845   1.046       .  S
N1841      H1846   1.046       .  S
N1844      H1847   1.046       .  S
N1844      H1848   1.044       .  S
C1849      C1850   1.403       .  A
C1849      C1854   1.408       .  A
C1849      H1856   1.084       .  S
C1850      C1851   1.415       .  A
C1851      C1852   1.401       .  A
C1851      N1858   1.433       .  S
C1852      C1853   1.397       .  A
C1852      H1857   1.084       .  S
C1853      C1854   1.412       .  A
C1854      N1855   1.438       .  S
N1855      H1859   1.046       .  S
N1855      H1860   1.044       .  S
N1858      H1861   1.046       .  S
N1858      H1862   1.046       .  S
C1863      C1864   1.399       .  A
C1863      C1868   1.398       .  A
C1863      H1870   1.084       .  S
C1864      C1865   1.418       .  A
C1865      C1866   1.403       .  A
C1865      N1872   1.433       .  S
C1866      C1867   1.408       .  A
C1866      H1871   1.083       .  S
C1867      C1868   1.426       .  A
C1868      N1869   1.433       .  S
N1869      H1873   1.044       .  S
N1869      H1874   1.046       .  S
N1872      H1875   1.046       .  S
N1872      H1876   1.045       .  S
C1877      C1878   1.397       .  A
C1877      C1882   1.408       .  A
C1877      H1884   1.084       .  S
C1878      C1879   1.414       .  A
C1879      C1880   1.397       .  A
C1879      N1886   1.434       .  S
C1880      C1881   1.405       .  A
C1880      H1885   1.083       .  S
C1881      C1882   1.423       .  A
C1882      N1883   1.438       .  S
N1883      H1887   1.046       .  S
N1883      H1888   1.046       .  S
N1886      H1889   1.046       .  S
N1886      H1890   1.044       .  S
C1891      C1892   1.404       .  A
C1891      C1896   1.409       .  A
C1891      H1898   1.084       .  S
C1892      C1893   1.412       .  A
C1893      C1894   1.397       .  A
C1893      N1900   1.433       .  S
C1894      C1895   1.404       .  A
C1894      H1899   1.084       .  S
C1895      C1896   1.411       .  A
C1896      N1897   1.437       .  S
N1897      H1901   1.046       .  S
N1897      H1902   1.046       .  S
N1900      H1903   1.046       .  S
N1900      H1904   1.044       .  S
C1905      C1906   1.401       .  A
C1905      C1910   1.402   1_565  A
C1905      H1912   1.084       .  S
C1906      C1907   1.420   1_565  A
C1907      C1908   1.411       .  A
C1907      N1914   1.438       .  S
C1908      C1909   1.405       .  A
C1908      H1913   1.083       .  S
C1909      C1910   1.418       .  A
C1910      N1911   1.433       .  S
N1911      H1915   1.046       .  S
N1911      H1916   1.046       .  S
N1914      H1917   1.045       .  S
N1914      H1918   1.046       .  S
C1919      C1920   1.401       .  A
C1919      C1924   1.413       .  A
C1919      H1926   1.084       .  S
C1920      C1921   1.414       .  A
C1921      C1922   1.408       .  A
C1921      N1928   1.438       .  S
C1922      C1923   1.405       .  A
C1922      H1927   1.083       .  S
C1923      C1924   1.421       .  A
C1924      N1925   1.437       .  S
N1925      H1929   1.046       .  S
N1925      H1930   1.046       .  S
N1928      H1931   1.046       .  S
N1928      H1932   1.046       .  S
C1933      C1934   1.407       .  A
C1933      C1938   1.395       .  A
C1933      H1940   1.084       .  S
C1934      C1935   1.411       .  A
C1935      C1936   1.406       .  A
C1935      N1942   1.432       .  S
C1936      C1937   1.411       .  A
C1936      H1941   1.084       .  S
C1937      C1938   1.412       .  A
C1938      N1939   1.433       .  S
N1939      H1943   1.045       .  S
N1939      H1944   1.045       .  S
N1942      H1945   1.045       .  S
N1942      H1946   1.045       .  S
C1947      C1948   1.406       .  A
C1947      C1952   1.404       .  A
C1947      H1954   1.084       .  S
C1948      C1949   1.407       .  A
C1949      C1950   1.401       .  A
C1949      N1956   1.439       .  S
C1950      C1951   1.409       .  A
C1950      H1955   1.083       .  S
C1951      C1952   1.415       .  A
C1952      N1953   1.432       .  S
N1953      H1957   1.045       .  S
N1953      H1958   1.046       .  S
N1956      H1959   1.045       .  S
N1956      H1960   1.046       .  S
C1961      C1962   1.408       .  A
C1961      C1966   1.401       .  A
C1961      H1968   1.084       .  S
C1962      C1963   1.406       .  A
C1963      C1964   1.405       .  A
C1963      N1970   1.432       .  S
C1964      C1965   1.407       .  A
C1964      H1969   1.084       .  S
C1965      C1966   1.408       .  A
C1966      N1967   1.438       .  S
N1967      H1971   1.046       .  S
N1967      H1972   1.045       .  S
N1970      H1973   1.046       .  S
N1970      H1974   1.046       .  S
C1975      C1976   1.406       .  A
C1975      C1980   1.401       .  A
C1975      H1982   1.084       .  S
C1976      C1977   1.425       .  A
C1977      C1978   1.404       .  A
C1977      N1984   1.432       .  S
C1978      C1979   1.402       .  A
C1978      H1983   1.084       .  S
C1979      C1980   1.420       .  A
C1980      N1981   1.433       .  S
N1981      H1985   1.045       .  S
N1981      H1986   1.046       .  S
N1984      H1987   1.046       .  S
N1984      H1988   1.044       .  S
C1989      C1990   1.404       .  A
C1989      C1994   1.407       .  A
C1989      H1996   1.084       .  S
C1990      C1991   1.406       .  A
C1991      C1992   1.403       .  A
C1991      N1998   1.438       .  S
C1992      C1993   1.410       .  A
C1992      H1997   1.083       .  S
C1993      C1994   1.413       .  A
C1994      N1995   1.437       .  S
N1995      H1999   1.046       .  S
N1995      H2000   1.046       .  S
N1998      H2001   1.045       .  S
N1998      H2002   1.046       .  S
C2003      C2004   1.412       .  A
C2003      C2008   1.410   1_455  A
C2003      H2010   1.083       .  S
C2004      C2005   1.411       .  A
C2005      C2006   1.402       .  A
C2005      N2012   1.432       .  S
C2006      C2007   1.407   1_455  A
C2006      H2011   1.084       .  S
C2007      C2008   1.410       .  A
C2008      N2009   1.438       .  S
N2009      H2013   1.046       .  S
N2009      H2014   1.046       .  S
N2012      H2015   1.046       .  S
N2012      H2016   1.046       .  S
C2017      C2018   1.404       .  A
C2017      C2022   1.394       .  A
C2017      H2024   1.085       .  S
C2018      C2019   1.408       .  A
C2019      C2020   1.410       .  A
C2019      N2026   1.437       .  S
C2020      C2021   1.411       .  A
C2020      H2025   1.084       .  S
C2021      C2022   1.406       .  A
C2022      N2023   1.433       .  S
N2023      H2027   1.046       .  S
N2023      H2028   1.046       .  S
N2026      H2029   1.045       .  S
N2026      H2030   1.046       .  S
C2031      C2032   1.407       .  A
C2031      C2036   1.405       .  A
C2031      H2038   1.084       .  S
C2032      C2033   1.413       .  A
C2033      C2034   1.401       .  A
C2033      N2040   1.432       .  S
C2034      C2035   1.404       .  A
C2034      H2039   1.084       .  S
C2035      C2036   1.407       .  A
C2036      N2037   1.438       .  S
N2037      H2041   1.046       .  S
N2037      H2042   1.046       .  S
N2040      H2043   1.045       .  S
N2040      H2044   1.045       .  S
C2045      C2046   1.406       .  A
C2045      C2050   1.402   1_565  A
C2045      H2052   1.084       .  S
C2046      C2047   1.422   1_565  A
C2047      C2048   1.399       .  A
C2047      N2054   1.432       .  S
C2048      C2049   1.403       .  A
C2048      H2053   1.084       .  S
C2049      C2050   1.412       .  A
C2050      N2051   1.433       .  S
N2051      H2055   1.046       .  S
N2051      H2056   1.046       .  S
N2054      H2057   1.045       .  S
N2054      H2058   1.045       .  S
C2059      C2060   1.398       .  A
C2059      C2064   1.397       .  A
C2059      H2066   1.084       .  S
C2060      C2061   1.411       .  A
C2061      C2062   1.406       .  A
C2061      N2068   1.438       .  S
C2062      C2063   1.402       .  A
C2062      H2067   1.084       .  S
C2063      C2064   1.410       .  A
C2064      N2065   1.433       .  S
N2065      H2069   1.046       .  S
N2065      H2070   1.046       .  S
N2068      H2071   1.045       .  S
N2068      H2072   1.046       .  S
C2073      C2074   1.409   1_554  A
C2073      C2078   1.405       .  A
C2073      H2080   1.084       .  S
C2074      C2075   1.412       .  A
C2075      C2076   1.403   1_556  A
C2075      N2082   1.438       .  S
C2076      C2077   1.407       .  A
C2076      H2081   1.083       .  S
C2077      C2078   1.410       .  A
C2078      N2079   1.432       .  S
N2079      H2083   1.046       .  S
N2079      H2084   1.046       .  S
N2082      H2085   1.046       .  S
N2082      H2086   1.046       .  S
C2087      C2088   1.406       .  A
C2087      C2092   1.396       .  A
C2087      H2094   1.084       .  S
C2088      C2089   1.408       .  A
C2089      C2090   1.409       .  A
C2089      N2096   1.437       .  S
C2090      C2091   1.409       .  A
C2090      H2095   1.084       .  S
C2091      C2092   1.406       .  A
C2092      N2093   1.433       .  S
N2093      H2097   1.046       .  S
N2093      H2098   1.046       .  S
N2096      H2099   1.046       .  S
N2096      H2100   1.046       .  S
C2101      C2102   1.409       .  A
C2101      C2106   1.410       .  A
C2101      H2108   1.084       .  S
C2102      C2103   1.406       .  A
C2103      C2104   1.395       .  A
C2103      N2110   1.433       .  S
C2104      C2105   1.405       .  A
C2104      H2109   1.084       .  S
C2105      C2106   1.408       .  A
C2106      N2107   1.437       .  S
N2107      H2111   1.046       .  S
N2107      H2112   1.046       .  S
N2110      H2113   1.046       .  S
N2110      H2114   1.046       .  S
C2115      C2116   1.410       .  A
C2115      C2120   1.399       .  A
C2115      H2122   1.083       .  S
C2116      C2117   1.413       .  A
C2117      C2118   1.406       .  A
C2117      N2124   1.437       .  S
C2118      C2119   1.408       .  A
C2118      H2123   1.083       .  S
C2119      C2120   1.414       .  A
C2120      N2121   1.433       .  S
N2121      H2125   1.045       .  S
N2121      H2126   1.045       .  S
N2124      H2127   1.046       .  S
N2124      H2128   1.046       .  S
C2129      C2130   1.407       .  A
C2129      C2134   1.404       .  A
C2129      H2136   1.084       .  S
C2130      C2131   1.411       .  A
C2131      C2132   1.411       .  A
C2131      N2138   1.437       .  S
C2132      C2133   1.408       .  A
C2132      H2137   1.084       .  S
C2133      C2134   1.410       .  A
C2134      N2135   1.438       .  S
N2135      H2139   1.046       .  S
N2135      H2140   1.045       .  S
N2138      H2141   1.046       .  S
N2138      H2142   1.046       .  S
C2143      C2144   1.410       .  A
C2143      C2148   1.408       .  A
C2143      H2150   1.083       .  S
C2144      C2145   1.411       .  A
C2145      C2146   1.405       .  A
C2145      N2152   1.432       .  S
C2146      C2147   1.408       .  A
C2146      H2151   1.084       .  S
C2147      C2148   1.412       .  A
C2148      N2149   1.438       .  S
N2149      H2153   1.046       .  S
N2149      H2154   1.046       .  S
N2152      H2155   1.046       .  S
N2152      H2156   1.046       .  S
C2157      C2158   1.398       .  A
C2157      C2162   1.404       .  A
C2157      H2164   1.084       .  S
C2158      C2159   1.410       .  A
C2159      C2160   1.409       .  A
C2159      N2166   1.438       .  S
C2160      C2161   1.406       .  A
C2160      H2165   1.084       .  S
C2161      C2162   1.418       .  A
C2162      N2163   1.438       .  S
N2163      H2167   1.046       .  S
N2163      H2168   1.045       .  S
N2166      H2169   1.046       .  S
N2166      H2170   1.046       .  S
C2171      C2172   1.402       .  A
C2171      C2176   1.391       .  A
C2171      H2178   1.084       .  S
C2172      C2173   1.422       .  A
C2173      C2174   1.407       .  A
C2173      N2180   1.438       .  S
C2174      C2175   1.397       .  A
C2174      H2179   1.084       .  S
C2175      C2176   1.413       .  A
C2176      N2177   1.434       .  S
N2177      H2181   1.044       .  S
N2177      H2182   1.045       .  S
N2180      H2183   1.046       .  S
N2180      H2184   1.046       .  S
C2185      C2186   1.403       .  A
C2185      C2190   1.398   1_565  A
C2185      H2192   1.084       .  S
C2186      C2187   1.419   1_565  A
C2187      C2188   1.406       .  A
C2187      N2194   1.439       .  S
C2188      C2189   1.405       .  A
C2188      H2193   1.083       .  S
C2189      C2190   1.422       .  A
C2190      N2191   1.433       .  S
N2191      H2195   1.046       .  S
N2191      H2196   1.044       .  S
N2194      H2197   1.046       .  S
N2194      H2198   1.046       .  S
C2199      C2200   1.404       .  A
C2199      C2204   1.404       .  A
C2199      H2206   1.083       .  S
C2200      C2201   1.421       .  A
C2201      C2202   1.409       .  A
C2201      N2208   1.438       .  S
C2202      C2203   1.402       .  A
C2202      H2207   1.084       .  S
C2203      C2204   1.417       .  A
C2204      N2205   1.439       .  S
N2205      H2209   1.046       .  S
N2205      H2210   1.046       .  S
N2208      H2211   1.046       .  S
N2208      H2212   1.046       .  S
C2213      C2214   1.398       .  A
C2213      C2218   1.407       .  A
C2213      H2220   1.084       .  S
C2214      C2215   1.414       .  A
C2215      C2216   1.391       .  A
C2215      N2222   1.433       .  S
C2216      C2217   1.401       .  A
C2216      H2221   1.084       .  S
C2217      C2218   1.419       .  A
C2218      N2219   1.438       .  S
N2219      H2223   1.046       .  S
N2219      H2224   1.046       .  S
N2222      H2225   1.045       .  S
N2222      H2226   1.044       .  S
C2227      C2228   1.403       .  A
C2227      C2232   1.411   1_556  A
C2227      H2234   1.084       .  S
C2228      C2229   1.417   1_556  A
C2229      C2230   1.405       .  A
C2229      N2236   1.439       .  S
C2230      C2231   1.404       .  A
C2230      H2235   1.083       .  S
C2231      C2232   1.422       .  A
C2232      N2233   1.438       .  S
N2233      H2237   1.046   1_554  S
N2233      H2238   1.045       .  S
N2236      H2239   1.046       .  S
N2236      H2240   1.046       .  S
C2241      C2242   1.411       .  A
C2241      C2246   1.413       .  A
C2241      H2248   1.083       .  S
C2242      C2243   1.418       .  A
C2243      C2244   1.403       .  A
C2243      N2250   1.432       .  S
C2244      C2245   1.409       .  A
C2244      H2249   1.083       .  S
C2245      C2246   1.415       .  A
C2246      N2247   1.438       .  S
N2247      H2251   1.046       .  S
N2247      H2252   1.046       .  S
N2250      H2253   1.046       .  S
N2250      H2254   1.044       .  S
C2255      C2256   1.401       .  A
C2255      C2260   1.409       .  A
C2255      H2262   1.084       .  S
C2256      C2257   1.417       .  A
C2257      C2258   1.394       .  A
C2257      N2264   1.433       .  S
C2258      C2259   1.399       .  A
C2258      H2263   1.084       .  S
C2259      C2260   1.418       .  A
C2260      N2261   1.438       .  S
N2261      H2265   1.046       .  S
N2261      H2266   1.046       .  S
N2264      H2267   1.045       .  S
N2264      H2268   1.044       .  S
C2269      C2270   1.411       .  A
C2269      C2274   1.406       .  A
C2269      H2276   1.084       .  S
C2270      C2271   1.409       .  A
C2271      C2272   1.400       .  A
C2271      N2278   1.432       .  S
C2272      C2273   1.405       .  A
C2272      H2277   1.085       .  S
C2273      C2274   1.414       .  A
C2274      N2275   1.438       .  S
N2275      H2279   1.046       .  S
N2275      H2280   1.042       .  S
N2278      H2281   1.046       .  S
N2278      H2282   1.046       .  S
C2283      C2284   1.411   1_455  A
C2283      C2288   1.400       .  A
C2283      H2290   1.083       .  S
C2284      C2285   1.412       .  A
C2285      C2286   1.406   1_655  A
C2285      N2292   1.438       .  S
C2286      C2287   1.409       .  A
C2286      H2291   1.083       .  S
C2287      C2288   1.405       .  A
C2288      N2289   1.432       .  S
N2289      H2293   1.046       .  S
N2289      H2294   1.046       .  S
N2292      H2295   1.046       .  S
N2292      H2296   1.046       .  S
C2297      C2298   1.403       .  A
C2297      C2302   1.398       .  A
C2297      H2304   1.085       .  S
C2298      C2299   1.406       .  A
C2299      C2300   1.410       .  A
C2299      N2306   1.437       .  S
C2300      C2301   1.412       .  A
C2300      H2305   1.083       .  S
C2301      C2302   1.410       .  A
C2302      N2303   1.433       .  S
N2303      H2307   1.046       .  S
N2303      H2308   1.046       .  S
N2306      H2309   1.046       .  S
N2306      H2310   1.046       .  S
C2311      C2312   1.411       .  A
C2311      C2316   1.414       .  A
C2311      H2318   1.083       .  S
C2312      C2313   1.409       .  A
C2313      C2314   1.402       .  A
C2313      N2320   1.433       .  S
C2314      C2315   1.410       .  A
C2314      H2319   1.083       .  S
C2315      C2316   1.414       .  A
C2316      N2317   1.437       .  S
N2317      H2321   1.046       .  S
N2317      H2322   1.045       .  S
N2320      H2323   1.046       .  S
N2320      H2324   1.046       .  S
C2325      C2326   1.402       .  A
C2325      C2330   1.403       .  A
C2325      H2332   1.084       .  S
C2326      C2327   1.419       .  A
C2327      C2328   1.400       .  A
C2327      N2334   1.439       .  S
C2328      C2329   1.400       .  A
C2328      H2333   1.084       .  S
C2329      C2330   1.413       .  A
C2330      N2331   1.439       .  S
N2331      H2335   1.046       .  S
N2331      H2336   1.045       .  S
N2334      H2337   1.041       .  S
N2334      H2338   1.045       .  S
C2339      C2340   1.409       .  A
C2339      C2344   1.403       .  A
C2339      H2346   1.084       .  S
C2340      C2341   1.411       .  A
C2341      C2342   1.403       .  A
C2341      N2348   1.438       .  S
C2342      C2343   1.407       .  A
C2342      H2347   1.084       .  S
C2343      C2344   1.412       .  A
C2344      N2345   1.432       .  S
N2345      H2349   1.045       .  S
N2345      H2350   1.046       .  S
N2348      H2351   1.046       .  S
N2348      H2352   1.046       .  S
C2353      C2354   1.413       .  A
C2353      C2358   1.402       .  A
C2353      H2360   1.083       .  S
C2354      C2355   1.416       .  A
C2355      C2356   1.395       .  A
C2355      N2362   1.432       .  S
C2356      C2357   1.406       .  A
C2356      H2361   1.084       .  S
C2357      C2358   1.405       .  A
C2358      N2359   1.438       .  S
N2359      H2363   1.046   1_565  S
N2359      H2364   1.046   1_565  S
N2362      H2365   1.045       .  S
N2362      H2366   1.045       .  S
C2367      C2368   1.409       .  A
C2367      C2372   1.404       .  A
C2367      H2374   1.083       .  S
C2368      C2369   1.406       .  A
C2369      C2370   1.403       .  A
C2369      N2376   1.438       .  S
C2370      C2371   1.413       .  A
C2370      H2375   1.083       .  S
C2371      C2372   1.411       .  A
C2372      N2373   1.438       .  S
N2373      H2377   1.046       .  S
N2373      H2378   1.046       .  S
N2376      H2379   1.046       .  S
N2376      H2380   1.046       .  S
C2381      C2382   1.405       .  A
C2381      C2386   1.396       .  A
C2381      H2388   1.085       .  S
C2382      C2383   1.418       .  A
C2383      C2384   1.406       .  A
C2383      N2390   1.439       .  S
C2384      C2385   1.409       .  A
C2384      H2389   1.084       .  S
C2385      C2386   1.406       .  A
C2386      N2387   1.433       .  S
N2387      H2391   1.046   1_565  S
N2387      H2392   1.046       .  S
N2390      H2393   1.041       .  S
N2390      H2394   1.046       .  S
C2395      C2396   1.401       .  A
C2395      C2400   1.396       .  A
C2395      H2402   1.084       .  S
C2396      C2397   1.417       .  A
C2397      C2398   1.406       .  A
C2397      N2404   1.438       .  S
C2398      C2399   1.398       .  A
C2398      H2403   1.084       .  S
C2399      C2400   1.413       .  A
C2400      N2401   1.434       .  S
N2401      H2405   1.046       .  S
N2401      H2406   1.045       .  S
N2404      H2407   1.046       .  S
N2404      H2408   1.046       .  S
C2409      C2410   1.406       .  A
C2409      C2414   1.399       .  A
C2409      H2416   1.084       .  S
C2410      C2411   1.406       .  A
C2411      C2412   1.407       .  A
C2411      N2418   1.437       .  S
C2412      C2413   1.409       .  A
C2412      H2417   1.083       .  S
C2413      C2414   1.409       .  A
C2414      N2415   1.439       .  S
N2415      H2419   1.046       .  S
N2415      H2420   1.046       .  S
N2418      H2421   1.045       .  S
N2418      H2422   1.046       .  S
C2423      C2424   1.410       .  A
C2423      C2428   1.399       .  A
C2423      H2430   1.083       .  S
C2424      C2425   1.411       .  A
C2425      C2426   1.402       .  A
C2425      N2432   1.438       .  S
C2426      C2427   1.408       .  A
C2426      H2431   1.083       .  S
C2427      C2428   1.405       .  A
C2428      N2429   1.433       .  S
N2429      H2433   1.046       .  S
N2429      H2434   1.046       .  S
N2432      H2435   1.046       .  S
N2432      H2436   1.046       .  S
C2437      C2438   1.403       .  A
C2437      C2442   1.408       .  A
C2437      H2444   1.084       .  S
C2438      C2439   1.409       .  A
C2439      C2440   1.402       .  A
C2439      N2446   1.438   1_655  S
C2440      C2441   1.403       .  A
C2440      H2445   1.084   1_655  S
C2441      C2442   1.412       .  A
C2442      N2443   1.438       .  S
N2443      H2447   1.046       .  S
N2443      H2448   1.045       .  S
N2446      H2449   1.046   1_455  S
N2446      H2450   1.046       .  S
C2451      C2452   1.403       .  A
C2451      C2456   1.403       .  A
C2451      H2458   1.083       .  S
C2452      C2453   1.421       .  A
C2453      C2454   1.405       .  A
C2453      N2460   1.438       .  S
C2454      C2455   1.400       .  A
C2454      H2459   1.084       .  S
C2455      C2456   1.417       .  A
C2456      N2457   1.439       .  S
N2457      H2461   1.046       .  S
N2457      H2462   1.045       .  S
N2460      H2463   1.046       .  S
N2460      H2464   1.046       .  S
C2465      C2466   1.407       .  A
C2465      C2470   1.409       .  A
C2465      H2472   1.084       .  S
C2466      C2467   1.409       .  A
C2467      C2468   1.393       .  A
C2467      N2474   1.433       .  S
C2468      C2469   1.407       .  A
C2468      H2473   1.084       .  S
C2469      C2470   1.413       .  A
C2470      N2471   1.437       .  S
N2471      H2475   1.046       .  S
N2471      H2476   1.045       .  S
N2474      H2477   1.045       .  S
N2474      H2478   1.046       .  S
C2479      C2480   1.407       .  A
C2479      C2484   1.400       .  A
C2479      H2486   1.084       .  S
C2480      C2481   1.405       .  A
C2481      C2482   1.402       .  A
C2481      N2488   1.438       .  S
C2482      C2483   1.413       .  A
C2482      H2487   1.083       .  S
C2483      C2484   1.408       .  A
C2484      N2485   1.432       .  S
N2485      H2489   1.046       .  S
N2485      H2490   1.046       .  S
N2488      H2491   1.046       .  S
N2488      H2492   1.046       .  S
C2493      C2494   1.401       .  A
C2493      C2498   1.410       .  A
C2493      H2500   1.083       .  S
C2494      C2495   1.415       .  A
C2495      C2496   1.398       .  A
C2495      N2502   1.434       .  S
C2496      C2497   1.398       .  A
C2496      H2501   1.084       .  S
C2497      C2498   1.416       .  A
C2498      N2499   1.438       .  S
N2499      H2503   1.046       .  S
N2499      H2504   1.046       .  S
N2502      H2505   1.046       .  S
N2502      H2506   1.046       .  S
C2507      C2508   1.405       .  A
C2507      C2512   1.402       .  A
C2507      H2514   1.084       .  S
C2508      C2509   1.411       .  A
C2509      C2510   1.409       .  A
C2509      N2516   1.437       .  S
C2510      C2511   1.403       .  A
C2510      H2515   1.084       .  S
C2511      C2512   1.406       .  A
C2512      N2513   1.438       .  S
N2513      H2517   1.046       .  S
N2513      H2518   1.046       .  S
N2516      H2519   1.046       .  S
N2516      H2520   1.046       .  S
C2521      C2522   1.412       .  A
C2521      C2526   1.397       .  A
C2521      H2528   1.083       .  S
C2522      C2523   1.417       .  A
C2523      C2524   1.397       .  A
C2523      N2530   1.432       .  S
C2524      C2525   1.406       .  A
C2524      H2529   1.084       .  S
C2525      C2526   1.410       .  A
C2526      N2527   1.433       .  S
N2527      H2531   1.046       .  S
N2527      H2532   1.044       .  S
N2530      H2533   1.046       .  S
N2530      H2534   1.045       .  S
C2535      C2536   1.408       .  A
C2535      C2540   1.408   1_655  A
C2535      H2542   1.083       .  S
C2536      C2537   1.412   1_655  A
C2537      C2538   1.408   1_545  A
C2537      N2544   1.438   1_545  S
C2538      C2539   1.409   1_565  A
C2538      H2543   1.083       .  S
C2539      C2540   1.413       .  A
C2540      N2541   1.438       .  S
N2541      H2545   1.046       .  S
N2541      H2546   1.046   1_455  S
N2544      H2547   1.046   1_565  S
N2544      H2548   1.045       .  S
C2549      C2550   1.405       .  A
C2549      C2554   1.400       .  A
C2549      H2556   1.084       .  S
C2550      C2551   1.406       .  A
C2551      C2552   1.397       .  A
C2551      N2558   1.439       .  S
C2552      C2553   1.408       .  A
C2552      H2557   1.083       .  S
C2553      C2554   1.412       .  A
C2554      N2555   1.438       .  S
N2555      H2559   1.046       .  S
N2555      H2560   1.045       .  S
N2558      H2561   1.046       .  S
N2558      H2562   1.045       .  S
C2563      C2564   1.406       .  A
C2563      C2568   1.400       .  A
C2563      H2570   1.084       .  S
C2564      C2565   1.408       .  A
C2565      C2566   1.408       .  A
C2565      N2572   1.432       .  S
C2566      C2567   1.408       .  A
C2566      H2571   1.084       .  S
C2567      C2568   1.409       .  A
C2568      N2569   1.439       .  S
N2569      H2573   1.046       .  S
N2569      H2574   1.045       .  S
N2572      H2575   1.046       .  S
N2572      H2576   1.046       .  S
C2577      C2578   1.410       .  A
C2577      C2582   1.401       .  A
C2577      H2584   1.083       .  S
C2578      C2579   1.408       .  A
C2579      C2580   1.395       .  A
C2579      N2586   1.433       .  S
C2580      C2581   1.406       .  A
C2580      H2585   1.084       .  S
C2581      C2582   1.408       .  A
C2582      N2583   1.438       .  S
N2583      H2587   1.046       .  S
N2583      H2588   1.046       .  S
N2586      H2589   1.046       .  S
N2586      H2590   1.046       .  S
C2591      C2592   1.402       .  A
C2591      C2596   1.391       .  A
C2591      H2598   1.084   1_556  S
C2592      C2593   1.411       .  A
C2593      C2594   1.409       .  A
C2593      N2600   1.438       .  S
C2594      C2595   1.405       .  A
C2594      H2599   1.084       .  S
C2595      C2596   1.408       .  A
C2596      N2597   1.434   1_556  S
N2597      H2601   1.044       .  S
N2597      H2602   1.046   1_554  S
N2600      H2603   1.046       .  S
N2600      H2604   1.046       .  S
C2605      C2606   1.399       .  A
C2605      C2610   1.396       .  A
C2605      H2612   1.084       .  S
C2606      C2607   1.419       .  A
C2607      C2608   1.404       .  A
C2607      N2614   1.439       .  S
C2608      C2609   1.402       .  A
C2608      H2613   1.083       .  S
C2609      C2610   1.424       .  A
C2610      N2611   1.433       .  S
N2611      H2615   1.045   1_565  S
N2611      H2616   1.045       .  S
N2614      H2617   1.046       .  S
N2614      H2618   1.046       .  S
C2619      C2620   1.403       .  A
C2619      C2624   1.405   1_545  A
C2619      H2626   1.083       .  S
C2620      C2621   1.422       .  A
C2621      C2622   1.410       .  A
C2621      N2628   1.438   1_455  S
C2622      C2623   1.400       .  A
C2622      H2627   1.084   1_455  S
C2623      C2624   1.415   1_545  A
C2624      N2625   1.439       .  S
N2625      H2629   1.046       .  S
N2625      H2630   1.046       .  S
N2628      H2631   1.046       .  S
N2628      H2632   1.046       .  S
C2633      C2634   1.403       .  A
C2633      C2638   1.401       .  A
C2633      H2640   1.084       .  S
C2634      C2635   1.412       .  A
C2635      C2636   1.402       .  A
C2635      N2642   1.432       .  S
C2636      C2637   1.404       .  A
C2636      H2641   1.084       .  S
C2637      C2638   1.408       .  A
C2638      N2639   1.438       .  S
N2639      H2643   1.046   1_455  S
N2639      H2644   1.046       .  S
N2642      H2645   1.046       .  S
N2642      H2646   1.045       .  S
C2647      C2648   1.403       .  A
C2647      C2652   1.394       .  A
C2647      H2654   1.084       .  S
C2648      C2649   1.408       .  A
C2649      C2650   1.396       .  A
C2649      N2656   1.433       .  S
C2650      C2651   1.412       .  A
C2650      H2655   1.084       .  S
C2651      C2652   1.417       .  A
C2652      N2653   1.432       .  S
N2653      H2657   1.045       .  S
N2653      H2658   1.045       .  S
N2656      H2659   1.046       .  S
N2656      H2660   1.044       .  S
C2661      C2662   1.405       .  A
C2661      C2666   1.402       .  A
C2661      H2668   1.084       .  S
C2662      C2663   1.408       .  A
C2663      C2664   1.412       .  A
C2663      N2670   1.437       .  S
C2664      C2665   1.412       .  A
C2664      H2669   1.083       .  S
C2665      C2666   1.412       .  A
C2666      N2667   1.439       .  S
N2667      H2671   1.046       .  S
N2667      H2672   1.045   1_565  S
N2670      H2673   1.045       .  S
N2670      H2674   1.045       .  S
C2675      C2676   1.407       .  A
C2675      C2680   1.407       .  A
C2675      H2682   1.083       .  S
C2676      C2677   1.407       .  A
C2677      C2678   1.400       .  A
C2677      N2684   1.439       .  S
C2678      C2679   1.411       .  A
C2678      H2683   1.083       .  S
C2679      C2680   1.414       .  A
C2680      N2681   1.438       .  S
N2681      H2685   1.046       .  S
N2681      H2686   1.045       .  S
N2684      H2687   1.046       .  S
N2684      H2688   1.046       .  S
C2689      C2690   1.401       .  A
C2689      C2694   1.413       .  A
C2689      H2696   1.083       .  S
C2690      C2691   1.411       .  A
C2691      C2692   1.400       .  A
C2691      N2698   1.434       .  S
C2692      C2693   1.402       .  A
C2692      H2697   1.084       .  S
C2693      C2694   1.420       .  A
C2694      N2695   1.437       .  S
N2695      H2699   1.046       .  S
N2695      H2700   1.046       .  S
N2698      H2701   1.046       .  S
N2698      H2702   1.046       .  S
C2703      C2704   1.404       .  A
C2703      C2708   1.403       .  A
C2703      H2710   1.084       .  S
C2704      C2705   1.416       .  A
C2705      C2706   1.402       .  A
C2705      N2712   1.438       .  S
C2706      C2707   1.398       .  A
C2706      H2711   1.084       .  S
C2707      C2708   1.417       .  A
C2708      N2709   1.439       .  S
N2709      H2713   1.046       .  S
N2709      H2714   1.042       .  S
N2712      H2715   1.045       .  S
N2712      H2716   1.046       .  S
C2717      C2718   1.410       .  A
C2717      C2722   1.403       .  A
C2717      H2724   1.083       .  S
C2718      C2719   1.411       .  A
C2719      C2720   1.405       .  A
C2719      N2726   1.438       .  S
C2720      C2721   1.410       .  A
C2720      H2725   1.083       .  S
C2721      C2722   1.410       .  A
C2722      N2723   1.438       .  S
N2723      H2727   1.045       .  S
N2723      H2728   1.046       .  S
N2726      H2729   1.045       .  S
N2726      H2730   1.046       .  S
C2731      C2732   1.405   1_554  A
C2731      C2736   1.411       .  A
C2731      H2738   1.083       .  S
C2732      C2733   1.419       .  A
C2733      C2734   1.407       .  A
C2733      N2740   1.439       .  S
C2734      C2735   1.405   1_556  A
C2734      H2739   1.083       .  S
C2735      C2736   1.420       .  A
C2736      N2737   1.438       .  S
N2737      H2741   1.046       .  S
N2737      H2742   1.046       .  S
N2740      H2743   1.046   1_545  S
N2740      H2744   1.046       .  S
C2745      C2746   1.397       .  A
C2745      C2750   1.404       .  A
C2745      H2752   1.084       .  S
C2746      C2747   1.414       .  A
C2747      C2748   1.402       .  A
C2747      N2754   1.439       .  S
C2748      C2749   1.401       .  A
C2748      H2753   1.083       .  S
C2749      C2750   1.419       .  A
C2750      N2751   1.438       .  S
N2751      H2755   1.046       .  S
N2751      H2756   1.046       .  S
N2754      H2757   1.046       .  S
N2754      H2758   1.046       .  S
C2759      C2760   1.400       .  A
C2759      C2764   1.410       .  A
C2759      H2766   1.084       .  S
C2760      C2761   1.414       .  A
C2761      C2762   1.402       .  A
C2761      N2768   1.439       .  S
C2762      C2763   1.401       .  A
C2762      H2767   1.084       .  S
C2763      C2764   1.419       .  A
C2764      N2765   1.438       .  S
N2765      H2769   1.046       .  S
N2765      H2770   1.046       .  S
N2768      H2771   1.046       .  S
N2768      H2772   1.046       .  S
C2773      C2774   1.397       .  A
C2773      C2778   1.399       .  A
C2773      H2780   1.084       .  S
C2774      C2775   1.416       .  A
C2775      C2776   1.404       .  A
C2775      N2782   1.439       .  S
C2776      C2777   1.403       .  A
C2776      H2781   1.083       .  S
C2777      C2778   1.417       .  A
C2778      N2779   1.433       .  S
N2779      H2783   1.046       .  S
N2779      H2784   1.046       .  S
N2782      H2785   1.046       .  S
N2782      H2786   1.046       .  S
C2787      C2788   1.411       .  A
C2787      C2792   1.413       .  A
C2787      H2794   1.083       .  S
C2788      C2789   1.408       .  A
C2789      C2790   1.399       .  A
C2789      N2796   1.433       .  S
C2790      C2791   1.405       .  A
C2790      H2795   1.085       .  S
C2791      C2792   1.408       .  A
C2792      N2793   1.437       .  S
N2793      H2797   1.046       .  S
N2793      H2798   1.046       .  S
N2796      H2799   1.046       .  S
N2796      H2800   1.046       .  S
C2801      C2802   1.407       .  A
C2801      C2806   1.399       .  A
C2801      H2808   1.084       .  S
C2802      C2803   1.410       .  A
C2803      C2804   1.402       .  A
C2803      N2810   1.438       .  S
C2804      C2805   1.408       .  A
C2804      H2809   1.083       .  S
C2805      C2806   1.408       .  A
C2806      N2807   1.433       .  S
N2807      H2811   1.046   1_565  S
N2807      H2812   1.046       .  S
N2810      H2813   1.046       .  S
N2810      H2814   1.046       .  S
C2815      C2816   1.408       .  A
C2815      C2820   1.404       .  A
C2815      H2822   1.083   1_565  S
C2816      C2817   1.414       .  A
C2817      C2818   1.407       .  A
C2817      N2824   1.438       .  S
C2818      C2819   1.401       .  A
C2818      H2823   1.084       .  S
C2819      C2820   1.405       .  A
C2820      N2821   1.438       .  S
N2821      H2825   1.046   1_565  S
N2821      H2826   1.045   1_565  S
N2824      H2827   1.046       .  S
N2824      H2828   1.046       .  S
C2829      C2830   1.412       .  A
C2829      C2834   1.396       .  A
C2829      H2836   1.083       .  S
C2830      C2831   1.416       .  A
C2831      C2832   1.398       .  A
C2831      N2838   1.432       .  S
C2832      C2833   1.406       .  A
C2832      H2837   1.084       .  S
C2833      C2834   1.412       .  A
C2834      N2835   1.433       .  S
N2835      H2839   1.044       .  S
N2835      H2840   1.046       .  S
N2838      H2841   1.045       .  S
N2838      H2842   1.045       .  S
C2843      C2844   1.409       .  A
C2843      C2848   1.410       .  A
C2843      H2850   1.083       .  S
C2844      C2845   1.415   1_556  A
C2845      C2846   1.409       .  A
C2845      N2852   1.438       .  S
C2846      C2847   1.409       .  A
C2846      H2851   1.083       .  S
C2847      C2848   1.415   1_554  A
C2848      N2849   1.438       .  S
N2849      H2853   1.046       .  S
N2849      H2854   1.046       .  S
N2852      H2855   1.045       .  S
N2852      H2856   1.046       .  S
C2857      C2858   1.410       .  A
C2857      C2862   1.404       .  A
C2857      H2864   1.084       .  S
C2858      C2859   1.411       .  A
C2859      C2860   1.401       .  A
C2859      N2866   1.439       .  S
C2860      C2861   1.405       .  A
C2860      H2865   1.084       .  S
C2861      C2862   1.410       .  A
C2862      N2863   1.432       .  S
N2863      H2867   1.045       .  S
N2863      H2868   1.046       .  S
N2866      H2869   1.046       .  S
N2866      H2870   1.046       .  S
C2871      C2872   1.403       .  A
C2871      C2876   1.403       .  A
C2871      H2878   1.083       .  S
C2872      C2873   1.422       .  A
C2873      C2874   1.404       .  A
C2873      N2880   1.438       .  S
C2874      C2875   1.396       .  A
C2874      H2879   1.084       .  S
C2875      C2876   1.413       .  A
C2876      N2877   1.439       .  S
N2877      H2881   1.046       .  S
N2877      H2882   1.046       .  S
N2880      H2883   1.046       .  S
N2880      H2884   1.046       .  S
C2885      C2886   1.408       .  A
C2885      C2890   1.402       .  A
C2885      H2892   1.084       .  S
C2886      C2887   1.409       .  A
C2887      C2888   1.402       .  A
C2887      N2894   1.439       .  S
C2888      C2889   1.409       .  A
C2888      H2893   1.084       .  S
C2889      C2890   1.412       .  A
C2890      N2891   1.432       .  S
N2891      H2895   1.045       .  S
N2891      H2896   1.045       .  S
N2894      H2897   1.046       .  S
N2894      H2898   1.046       .  S
C2899      C2900   1.401       .  A
C2899      C2904   1.403       .  A
C2899      H2906   1.084       .  S
C2900      C2901   1.414       .  A
C2901      C2902   1.405       .  A
C2901      N2908   1.439       .  S
C2902      C2903   1.400       .  A
C2902      H2907   1.084       .  S
C2903      C2904   1.421       .  A
C2904      N2905   1.439       .  S
N2905      H2909   1.045       .  S
N2905      H2910   1.041       .  S
N2908      H2911   1.046   1_554  S
N2908      H2912   1.046   1_554  S
C2913      C2914   1.403       .  A
C2913      C2918   1.402       .  A
C2913      H2920   1.083       .  S
C2914      C2915   1.421       .  A
C2915      C2916   1.403       .  A
C2915      N2922   1.438       .  S
C2916      C2917   1.399       .  A
C2916      H2921   1.084       .  S
C2917      C2918   1.416       .  A
C2918      N2919   1.439       .  S
N2919      H2923   1.046       .  S
N2919      H2924   1.046       .  S
N2922      H2925   1.046       .  S
N2922      H2926   1.046       .  S
C2927      C2928   1.401       .  A
C2927      C2932   1.404       .  A
C2927      H2934   1.084       .  S
C2928      C2929   1.418       .  A
C2929      C2930   1.406       .  A
C2929      N2936   1.439       .  S
C2930      C2931   1.404       .  A
C2930      H2935   1.083       .  S
C2931      C2932   1.420       .  A
C2932      N2933   1.438       .  S
N2933      H2937   1.046       .  S
N2933      H2938   1.046       .  S
N2936      H2939   1.046       .  S
N2936      H2940   1.046       .  S
C2941      C2942   1.399       .  A
C2941      C2946   1.408       .  A
C2941      H2948   1.084       .  S
C2942      C2943   1.412       .  A
C2943      C2944   1.396       .  A
C2943      N2950   1.439       .  S
C2944      C2945   1.402       .  A
C2944      H2949   1.083       .  S
C2945      C2946   1.419       .  A
C2946      N2947   1.438       .  S
N2947      H2951   1.046       .  S
N2947      H2952   1.046       .  S
N2950      H2953   1.045       .  S
N2950      H2954   1.046       .  S
C2955      C2956   1.411       .  A
C2955      C2960   1.406       .  A
C2955      H2962   1.083       .  S
C2956      C2957   1.412   1_545  A
C2957      C2958   1.408       .  A
C2957      N2964   1.432       .  S
C2958      C2959   1.409       .  A
C2958      H2963   1.084       .  S
C2959      C2960   1.410   1_565  A
C2960      N2961   1.438       .  S
N2961      H2965   1.045       .  S
N2961      H2966   1.046       .  S
N2964      H2967   1.046       .  S
N2964      H2968   1.046       .  S
C2969      C2970   1.406       .  A
C2969      C2974   1.405       .  A
C2969      H2976   1.084       .  S
C2970      C2971   1.404       .  A
C2971      C2972   1.399       .  A
C2971      N2978   1.433       .  S
C2972      C2973   1.409       .  A
C2972      H2977   1.084       .  S
C2973      C2974   1.410       .  A
C2974      N2975   1.437       .  S
N2975      H2979   1.046       .  S
N2975      H2980   1.046       .  S
N2978      H2981   1.046       .  S
N2978      H2982   1.046       .  S
C2983      C2984   1.404       .  A
C2983      C2988   1.398       .  A
C2983      H2990   1.084       .  S
C2984      C2985   1.407       .  A
C2985      C2986   1.405       .  A
C2985      N2992   1.438       .  S
C2986      C2987   1.411       .  A
C2986      H2991   1.083       .  S
C2987      C2988   1.411       .  A
C2988      N2989   1.433       .  S
N2989      H2993   1.046       .  S
N2989      H2994   1.046       .  S
N2992      H2995   1.046       .  S
N2992      H2996   1.046       .  S
C2997      C2998   1.410       .  A
C2997      C3002   1.405       .  A
C2997      H3004   1.083       .  S
C2998      C2999   1.416       .  A
C2999      C3000   1.400       .  A
C2999      N3006   1.432       .  S
C3000      C3001   1.408       .  A
C3000      H3005   1.084       .  S
C3001      C3002   1.411       .  A
C3002      N3003   1.438       .  S
N3003      H3007   1.046       .  S
N3003      H3008   1.046       .  S
N3006      H3009   1.046       .  S
N3006      H3010   1.044   1_545  S
C3011      C3012   1.397       .  A
C3011      C3016   1.398       .  A
C3011      H3018   1.084       .  S
C3012      C3013   1.411       .  A
C3013      C3014   1.402       .  A
C3013      N3020   1.439       .  S
C3014      C3015   1.404       .  A
C3014      H3019   1.083       .  S
C3015      C3016   1.425       .  A
C3016      N3017   1.433       .  S
N3017      H3021   1.044       .  S
N3017      H3022   1.046       .  S
N3020      H3023   1.046       .  S
N3020      H3024   1.046       .  S
C3025      C3026   1.399       .  A
C3025      C3030   1.403       .  A
C3025      H3032   1.084       .  S
C3026      C3027   1.413       .  A
C3027      C3028   1.402       .  A
C3027      N3034   1.433       .  S
C3028      C3029   1.403       .  A
C3028      H3033   1.083       .  S
C3029      C3030   1.416       .  A
C3030      N3031   1.439       .  S
N3031      H3035   1.045       .  S
N3031      H3036   1.046       .  S
N3034      H3037   1.047       .  S
N3034      H3038   1.044       .  S
C3039      C3040   1.400       .  A
C3039      C3044   1.395       .  A
C3039      H3046   1.084       .  S
C3040      C3041   1.415       .  A
C3041      C3042   1.406       .  A
C3041      N3048   1.432       .  S
C3042      C3043   1.400       .  A
C3042      H3047   1.084       .  S
C3043      C3044   1.411       .  A
C3044      N3045   1.434       .  S
N3045      H3049   1.046       .  S
N3045      H3050   1.046       .  S
N3048      H3051   1.046       .  S
N3048      H3052   1.045       .  S
C3053      C3054   1.407       .  A
C3053      C3058   1.400       .  A
C3053      H3060   1.084       .  S
C3054      C3055   1.406       .  A
C3055      C3056   1.399       .  A
C3055      N3062   1.433       .  S
C3056      C3057   1.409       .  A
C3056      H3061   1.083       .  S
C3057      C3058   1.410       .  A
C3058      N3059   1.433       .  S
N3059      H3063   1.046       .  S
N3059      H3064   1.046   1_565  S
N3062      H3065   1.046       .  S
N3062      H3066   1.046       .  S
C3067      C3068   1.404       .  A
C3067      C3072   1.413       .  A
C3067      H3074   1.084       .  S
C3068      C3069   1.416   1_545  A
C3069      C3070   1.407   1_565  A
C3069      N3076   1.439       .  S
C3070      C3071   1.406       .  A
C3070      H3075   1.083   1_545  S
C3071      C3072   1.421       .  A
C3072      N3073   1.438       .  S
N3073      H3077   1.046       .  S
N3073      H3078   1.046       .  S
N3076      H3079   1.046       .  S
N3076      H3080   1.046       .  S
C3081      C3082   1.402       .  A
C3081      C3086   1.405       .  A
C3081      H3088   1.084       .  S
C3082      C3083   1.401       .  A
C3083      C3084   1.403       .  A
C3083      N3090   1.438       .  S
C3084      C3085   1.411       .  A
C3084      H3089   1.083       .  S
C3085      C3086   1.414       .  A
C3086      N3087   1.438       .  S
N3087      H3091   1.046       .  S
N3087      H3092   1.046       .  S
N3090      H3093   1.045   1_565  S
N3090      H3094   1.046   1_565  S
C3095      C3096   1.408       .  A
C3095      C3100   1.397       .  A
C3095      H3102   1.084       .  S
C3096      C3097   1.409       .  A
C3097      C3098   1.404       .  A
C3097      N3104   1.438       .  S
C3098      C3099   1.410       .  A
C3098      H3103   1.083       .  S
C3099      C3100   1.407       .  A
C3100      N3101   1.433       .  S
N3101      H3105   1.046       .  S
N3101      H3106   1.046       .  S
N3104      H3107   1.046       .  S
N3104      H3108   1.046       .  S
C3109      C3110   1.404       .  A
C3109      C3114   1.401       .  A
C3109      H3116   1.084       .  S
C3110      C3111   1.404       .  A
C3111      C3112   1.406       .  A
C3111      N3118   1.432       .  S
C3112      C3113   1.410       .  A
C3112      H3117   1.084       .  S
C3113      C3114   1.413       .  A
C3114      N3115   1.438       .  S
N3115      H3119   1.046       .  S
N3115      H3120   1.045       .  S
N3118      H3121   1.046       .  S
N3118      H3122   1.046       .  S
C3123      C3124   1.406       .  A
C3123      C3128   1.400       .  A
C3123      H3130   1.084       .  S
C3124      C3125   1.408       .  A
C3125      C3126   1.403       .  A
C3125      N3132   1.432       .  S
C3126      C3127   1.403       .  A
C3126      H3131   1.085       .  S
C3127      C3128   1.414       .  A
C3128      N3129   1.439       .  S
N3129      H3133   1.046       .  S
N3129      H3134   1.044       .  S
N3132      H3135   1.046       .  S
N3132      H3136   1.046       .  S
C3137      C3138   1.411       .  A
C3137      C3142   1.402       .  A
C3137      H3144   1.083       .  S
C3138      C3139   1.418       .  A
C3139      C3140   1.397       .  A
C3139      N3146   1.432       .  S
C3140      C3141   1.405       .  A
C3140      H3145   1.084       .  S
C3141      C3142   1.407       .  A
C3142      N3143   1.438       .  S
N3143      H3147   1.046       .  S
N3143      H3148   1.046       .  S
N3146      H3149   1.045       .  S
N3146      H3150   1.045       .  S
C3151      C3152   1.409       .  A
C3151      C3156   1.398       .  A
C3151      H3158   1.083       .  S
C3152      C3153   1.410       .  A
C3153      C3154   1.402       .  A
C3153      N3160   1.438       .  S
C3154      C3155   1.409       .  A
C3154      H3159   1.083       .  S
C3155      C3156   1.406       .  A
C3156      N3157   1.433       .  S
N3157      H3161   1.046       .  S
N3157      H3162   1.046       .  S
N3160      H3163   1.045       .  S
N3160      H3164   1.046       .  S
C3165      C3166   1.405       .  A
C3165      C3170   1.407       .  A
C3165      H3172   1.083       .  S
C3166      C3167   1.418       .  A
C3167      C3168   1.395       .  A
C3167      N3174   1.434       .  S
C3168      C3169   1.394       .  A
C3168      H3173   1.085       .  S
C3169      C3170   1.410       .  A
C3170      N3171   1.438       .  S
N3171      H3175   1.046       .  S
N3171      H3176   1.046       .  S
N3174      H3177   1.046       .  S
N3174      H3178   1.045       .  S
C3179      C3180   1.402       .  A
C3179      C3184   1.395       .  A
C3179      H3186   1.084       .  S
C3180      C3181   1.421       .  A
C3181      C3182   1.406       .  A
C3181      N3188   1.438       .  S
C3182      C3183   1.399       .  A
C3182      H3187   1.084       .  S
C3183      C3184   1.416       .  A
C3184      N3185   1.434       .  S
N3185      H3189   1.046       .  S
N3185      H3190   1.044       .  S
N3188      H3191   1.046       .  S
N3188      H3192   1.046       .  S
C3193      C3194   1.401       .  A
C3193      C3198   1.408       .  A
C3193      H3200   1.084       .  S
C3194      C3195   1.414       .  A
C3195      C3196   1.403       .  A
C3195      N3202   1.439       .  S
C3196      C3197   1.405       .  A
C3196      H3201   1.083       .  S
C3197      C3198   1.418       .  A
C3198      N3199   1.438       .  S
N3199      H3203   1.046       .  S
N3199      H3204   1.046       .  S
N3202      H3205   1.046       .  S
N3202      H3206   1.046       .  S
C3207      C3208   1.407       .  A
C3207      C3212   1.397       .  A
C3207      H3214   1.084       .  S
C3208      C3209   1.410       .  A
C3209      C3210   1.409       .  A
C3209      N3216   1.437       .  S
C3210      C3211   1.407       .  A
C3210      H3215   1.084       .  S
C3211      C3212   1.402       .  A
C3212      N3213   1.432       .  S
N3213      H3217   1.046       .  S
N3213      H3218   1.046       .  S
N3216      H3219   1.046       .  S
N3216      H3220   1.046       .  S
C3221      C3222   1.405       .  A
C3221      C3226   1.399       .  A
C3221      H3228   1.084       .  S
C3222      C3223   1.405       .  A
C3223      C3224   1.400       .  A
C3223      N3230   1.438       .  S
C3224      C3225   1.411       .  A
C3224      H3229   1.083       .  S
C3225      C3226   1.412       .  A
C3226      N3227   1.438       .  S
N3227      H3231   1.046       .  S
N3227      H3232   1.046       .  S
N3230      H3233   1.046       .  S
N3230      H3234   1.046       .  S
C3235      C3236   1.407       .  A
C3235      C3240   1.400       .  A
C3235      H3242   1.084       .  S
C3236      C3237   1.411       .  A
C3237      C3238   1.399       .  A
C3237      N3244   1.432       .  S
C3238      C3239   1.406       .  A
C3238      H3243   1.084       .  S
C3239      C3240   1.407       .  A
C3240      N3241   1.438       .  S
N3241      H3245   1.046       .  S
N3241      H3246   1.045       .  S
N3244      H3247   1.046       .  S
N3244      H3248   1.045       .  S
C3249      C3250   1.410       .  A
C3249      C3254   1.404       .  A
C3249      H3256   1.083       .  S
C3250      C3251   1.411       .  A
C3251      C3252   1.406       .  A
C3251      N3258   1.432       .  S
C3252      C3253   1.408       .  A
C3252      H3257   1.084       .  S
C3253      C3254   1.411       .  A
C3254      N3255   1.438       .  S
N3255      H3259   1.045       .  S
N3255      H3260   1.046       .  S
N3258      H3261   1.046       .  S
N3258      H3262   1.046       .  S
C3263      C3264   1.408       .  A
C3263      C3268   1.404       .  A
C3263      H3270   1.084       .  S
C3264      C3265   1.411       .  A
C3265      C3266   1.413       .  A
C3265      N3272   1.437       .  S
C3266      C3267   1.409       .  A
C3266      H3271   1.084       .  S
C3267      C3268   1.410       .  A
C3268      N3269   1.438       .  S
N3269      H3273   1.046       .  S
N3269      H3274   1.045       .  S
N3272      H3275   1.046       .  S
N3272      H3276   1.046       .  S
C3277      C3278   1.407       .  A
C3277      C3282   1.393       .  A
C3277      H3284   1.084       .  S
C3278      C3279   1.409       .  A
C3279      C3280   1.404       .  A
C3279      N3286   1.438       .  S
C3280      C3281   1.411       .  A
C3280      H3285   1.083       .  S
C3281      C3282   1.414       .  A
C3282      N3283   1.433       .  S
N3283      H3287   1.045       .  S
N3283      H3288   1.045       .  S
N3286      H3289   1.046       .  S
N3286      H3290   1.046       .  S
C3291      C3292   1.407       .  A
C3291      C3296   1.407       .  A
C3291      H3298   1.083       .  S
C3292      C3293   1.406       .  A
C3293      C3294   1.401       .  A
C3293      N3300   1.432       .  S
C3294      C3295   1.410       .  A
C3294      H3299   1.083       .  S
C3295      C3296   1.414       .  A
C3296      N3297   1.438       .  S
N3297      H3301   1.046       .  S
N3297      H3302   1.046       .  S
N3300      H3303   1.046       .  S
N3300      H3304   1.046       .  S
C3305      C3306   1.396       .  A
C3305      C3310   1.408       .  A
C3305      H3312   1.084       .  S
C3306      C3307   1.406       .  A
C3307      C3308   1.396       .  A
C3307      N3314   1.434       .  S
C3308      C3309   1.404       .  A
C3308      H3313   1.084       .  S
C3309      C3310   1.422       .  A
C3310      N3311   1.438       .  S
N3311      H3315   1.046       .  S
N3311      H3316   1.046       .  S
N3314      H3317   1.046       .  S
N3314      H3318   1.046       .  S
C3319      C3320   1.401       .  A
C3319      C3324   1.396       .  A
C3319      H3326   1.085       .  S
C3320      C3321   1.408       .  A
C3321      C3322   1.406       .  A
C3321      N3328   1.438       .  S
C3322      C3323   1.404       .  A
C3322      H3327   1.084       .  S
C3323      C3324   1.415       .  A
C3324      N3325   1.440       .  S
N3325      H3329   1.046       .  S
N3325      H3330   1.043       .  S
N3328      H3331   1.045       .  S
N3328      H3332   1.046       .  S
C3333      C3334   1.407       .  A
C3333      C3338   1.405       .  A
C3333      H3340   1.083       .  S
C3334      C3335   1.407       .  A
C3335      C3336   1.399       .  A
C3335      N3342   1.439       .  S
C3336      C3337   1.410       .  A
C3336      H3341   1.083       .  S
C3337      C3338   1.413       .  A
C3338      N3339   1.438       .  S
N3339      H3343   1.046       .  S
N3339      H3344   1.045       .  S
N3342      H3345   1.046       .  S
N3342      H3346   1.045       .  S
C3347      C3348   1.407       .  A
C3347      C3352   1.404       .  A
C3347      H3354   1.083       .  S
C3348      C3349   1.405       .  A
C3349      C3350   1.396       .  A
C3349      N3356   1.433       .  S
C3350      C3351   1.408       .  A
C3350      H3355   1.083       .  S
C3351      C3352   1.412       .  A
C3352      N3353   1.438       .  S
N3353      H3357   1.046       .  S
N3353      H3358   1.046       .  S
N3356      H3359   1.046       .  S
N3356      H3360   1.046       .  S
C3361      C3362   1.407       .  A
C3361      C3366   1.398       .  A
C3361      H3368   1.084       .  S
C3362      C3363   1.412       .  A
C3363      C3364   1.412       .  A
C3363      N3370   1.438       .  S
C3364      C3365   1.412       .  A
C3364      H3369   1.083       .  S
C3365      C3366   1.417       .  A
C3366      N3367   1.432       .  S
N3367      H3371   1.044       .  S
N3367      H3372   1.046       .  S
N3370      H3373   1.046   1_554  S
N3370      H3374   1.046       .  S
C3375      C3376   1.404       .  A
C3375      C3380   1.405       .  A
C3375      H3382   1.084       .  S
C3376      C3377   1.417       .  A
C3377      C3378   1.404       .  A
C3377      N3384   1.438       .  S
C3378      C3379   1.398       .  A
C3378      H3383   1.084       .  S
C3379      C3380   1.418       .  A
C3380      N3381   1.439       .  S
N3381      H3385   1.046       .  S
N3381      H3386   1.042       .  S
N3384      H3387   1.046       .  S
N3384      H3388   1.046       .  S
C3389      C3390   1.403       .  A
C3389      C3394   1.402       .  A
C3389      H3396   1.084       .  S
C3390      C3391   1.420       .  A
C3391      C3392   1.402       .  A
C3391      N3398   1.438       .  S
C3392      C3393   1.395       .  A
C3392      H3397   1.084       .  S
C3393      C3394   1.410       .  A
C3394      N3395   1.433       .  S
N3395      H3399   1.046       .  S
N3395      H3400   1.046       .  S
N3398      H3401   1.046       .  S
N3398      H3402   1.046       .  S
C3403      C3404   1.406       .  A
C3403      C3408   1.403       .  A
C3403      H3410   1.084       .  S
C3404      C3405   1.424       .  A
C3405      C3406   1.401       .  A
C3405      N3412   1.432       .  S
C3406      C3407   1.403       .  A
C3406      H3411   1.084       .  S
C3407      C3408   1.422       .  A
C3408      N3409   1.432       .  S
N3409      H3413   1.045       .  S
N3409      H3414   1.046       .  S
N3412      H3415   1.045       .  S
N3412      H3416   1.045       .  S
C3417      C3418   1.401       .  A
C3417      C3422   1.408       .  A
C3417      H3424   1.084       .  S
C3418      C3419   1.414       .  A
C3419      C3420   1.400       .  A
C3419      N3426   1.433       .  S
C3420      C3421   1.400       .  A
C3420      H3425   1.084       .  S
C3421      C3422   1.417       .  A
C3422      N3423   1.432       .  S
N3423      H3427   1.046       .  S
N3423      H3428   1.046       .  S
N3426      H3429   1.046       .  S
N3426      H3430   1.046       .  S
C3431      C3432   1.408       .  A
C3431      C3436   1.398       .  A
C3431      H3438   1.084       .  S
C3432      C3433   1.409       .  A
C3433      C3434   1.401       .  A
C3433      N3440   1.438       .  S
C3434      C3435   1.409       .  A
C3434      H3439   1.083       .  S
C3435      C3436   1.407       .  A
C3436      N3437   1.433       .  S
N3437      H3441   1.046       .  S
N3437      H3442   1.046       .  S
N3440      H3443   1.046       .  S
N3440      H3444   1.046       .  S
C3445      C3446   1.411       .  A
C3445      C3450   1.411       .  A
C3445      H3452   1.083       .  S
C3446      C3447   1.411       .  A
C3447      C3448   1.405       .  A
C3447      N3454   1.432       .  S
C3448      C3449   1.409       .  A
C3448      H3453   1.083   1_554  S
C3449      C3450   1.413       .  A
C3450      N3451   1.437       .  S
N3451      H3455   1.046       .  S
N3451      H3456   1.046       .  S
N3454      H3457   1.046   1_554  S
N3454      H3458   1.046       .  S
C3459      C3460   1.402       .  A
C3459      C3464   1.394       .  A
C3459      H3466   1.084       .  S
C3460      C3461   1.413       .  A
C3461      C3462   1.410       .  A
C3461      N3468   1.438       .  S
C3462      C3463   1.404       .  A
C3462      H3467   1.084       .  S
C3463      C3464   1.412       .  A
C3464      N3465   1.433       .  S
N3465      H3469   1.045       .  S
N3465      H3470   1.045       .  S
N3468      H3471   1.046       .  S
N3468      H3472   1.046       .  S
C3473      C3474   1.397       .  A
C3473      C3478   1.402       .  A
C3473      H3480   1.084       .  S
C3474      C3475   1.411       .  A
C3475      C3476   1.401       .  A
C3475      N3482   1.433       .  S
C3476      C3477   1.403       .  A
C3476      H3481   1.084       .  S
C3477      C3478   1.423       .  A
C3478      N3479   1.439       .  S
N3479      H3483   1.046       .  S
N3479      H3484   1.046       .  S
N3482      H3485   1.046       .  S
N3482      H3486   1.046       .  S
C3487      C3488   1.402       .  A
C3487      C3492   1.408       .  A
C3487      H3494   1.084       .  S
C3488      C3489   1.403       .  A
C3489      C3490   1.401       .  A
C3489      N3496   1.433   1_556  S
C3490      C3491   1.406       .  A
C3490      H3495   1.084   1_556  S
C3491      C3492   1.413       .  A
C3492      N3493   1.438       .  S
N3493      H3497   1.046       .  S
N3493      H3498   1.046       .  S
N3496      H3499   1.046       .  S
N3496      H3500   1.045       .  S
C3501      C3502   1.404       .  A
C3501      C3506   1.397       .  A
C3501      H3508   1.084       .  S
C3502      C3503   1.418       .  A
C3503      C3504   1.399       .  A
C3503      N3510   1.433       .  S
C3504      C3505   1.396       .  A
C3504      H3509   1.084       .  S
C3505      C3506   1.416       .  A
C3506      N3507   1.433       .  S
N3507      H3511   1.044       .  S
N3507      H3512   1.046       .  S
N3510      H3513   1.046       .  S
N3510      H3514   1.046       .  S
C3515      C3516   1.403       .  A
C3515      C3520   1.403       .  A
C3515      H3522   1.083       .  S
C3516      C3517   1.420       .  A
C3517      C3518   1.409       .  A
C3517      N3524   1.438       .  S
C3518      C3519   1.402       .  A
C3518      H3523   1.084       .  S
C3519      C3520   1.417       .  A
C3520      N3521   1.439       .  S
N3521      H3525   1.046       .  S
N3521      H3526   1.045       .  S
N3524      H3527   1.046       .  S
N3524      H3528   1.046       .  S
C3529      C3530   1.407       .  A
C3529      C3534   1.400       .  A
C3529      H3536   1.083       .  S
C3530      C3531   1.413       .  A
C3531      C3532   1.404       .  A
C3531      N3538   1.432       .  S
C3532      C3533   1.408       .  A
C3532      H3537   1.084       .  S
C3533      C3534   1.406       .  A
C3534      N3535   1.433       .  S
N3535      H3539   1.046       .  S
N3535      H3540   1.046       .  S
N3538      H3541   1.046       .  S
N3538      H3542   1.045       .  S
C3543      C3544   1.408       .  A
C3543      C3548   1.401       .  A
C3543      H3550   1.084       .  S
C3544      C3545   1.411       .  A
C3545      C3546   1.401       .  A
C3545      N3552   1.438       .  S
C3546      C3547   1.404       .  A
C3546      H3551   1.084       .  S
C3547      C3548   1.411       .  A
C3548      N3549   1.432       .  S
N3549      H3553   1.045       .  S
N3549      H3554   1.046       .  S
N3552      H3555   1.045       .  S
N3552      H3556   1.046       .  S
C3557      C3558   1.400       .  A
C3557      C3562   1.396       .  A
C3557      H3564   1.084       .  S
C3558      C3559   1.416       .  A
C3559      C3560   1.398       .  A
C3559      N3566   1.433       .  S
C3560      C3561   1.401       .  A
C3560      H3565   1.084       .  S
C3561      C3562   1.424       .  A
C3562      N3563   1.433       .  S
N3563      H3567   1.045       .  S
N3563      H3568   1.046       .  S
N3566      H3569   1.046       .  S
N3566      H3570   1.046       .  S
C3571      C3572   1.402   1_455  A
C3571      C3576   1.400       .  A
C3571      H3578   1.084       .  S
C3572      C3573   1.419       .  A
C3573      C3574   1.400       .  A
C3573      N3580   1.433       .  S
C3574      C3575   1.406   1_655  A
C3574      H3579   1.084       .  S
C3575      C3576   1.425       .  A
C3576      N3577   1.433       .  S
N3577      H3581   1.045       .  S
N3577      H3582   1.046       .  S
N3580      H3583   1.046       .  S
N3580      H3584   1.045       .  S
C3585      C3586   1.405       .  A
C3585      C3590   1.399       .  A
C3585      H3592   1.084       .  S
C3586      C3587   1.409       .  A
C3587      C3588   1.395       .  A
C3587      N3594   1.433       .  S
C3588      C3589   1.411       .  A
C3588      H3593   1.083       .  S
C3589      C3590   1.417       .  A
C3590      N3591   1.432       .  S
N3591      H3595   1.045       .  S
N3591      H3596   1.046       .  S
N3594      H3597   1.045       .  S
N3594      H3598   1.045       .  S
C3599      C3600   1.407       .  A
C3599      C3604   1.400       .  A
C3599      H3606   1.084       .  S
C3600      C3601   1.408       .  A
C3601      C3602   1.406       .  A
C3601      N3608   1.437       .  S
C3602      C3603   1.408       .  A
C3602      H3607   1.084       .  S
C3603      C3604   1.408       .  A
C3604      N3605   1.439       .  S
N3605      H3609   1.046       .  S
N3605      H3610   1.045       .  S
N3608      H3611   1.045       .  S
N3608      H3612   1.046       .  S
C3613      C3614   1.404       .  A
C3613      C3618   1.405       .  A
C3613      H3620   1.083       .  S
C3614      C3615   1.419       .  A
C3615      C3616   1.401       .  A
C3615      N3622   1.438       .  S
C3616      C3617   1.396       .  A
C3616      H3621   1.084       .  S
C3617      C3618   1.412       .  A
C3618      N3619   1.439       .  S
N3619      H3623   1.046       .  S
N3619      H3624   1.046       .  S
N3622      H3625   1.046       .  S
N3622      H3626   1.046       .  S
C3627      C3628   1.405       .  A
C3627      C3632   1.405       .  A
C3627      H3634   1.083       .  S
C3628      C3629   1.417       .  A
C3629      C3630   1.402       .  A
C3629      N3636   1.433       .  S
C3630      C3631   1.402       .  A
C3630      H3635   1.084       .  S
C3631      C3632   1.414       .  A
C3632      N3633   1.433       .  S
N3633      H3637   1.046       .  S
N3633      H3638   1.046       .  S
N3636      H3639   1.046       .  S
N3636      H3640   1.046       .  S
C3641      C3642   1.401       .  A
C3641      C3646   1.397       .  A
C3641      H3648   1.084       .  S
C3642      C3643   1.420       .  A
C3643      C3644   1.409       .  A
C3643      N3650   1.438       .  S
C3644      C3645   1.399       .  A
C3644      H3649   1.084       .  S
C3645      C3646   1.410       .  A
C3646      N3647   1.434       .  S
N3647      H3651   1.046       .  S
N3647      H3652   1.046       .  S
N3650      H3653   1.046       .  S
N3650      H3654   1.046       .  S
C3655      C3656   1.397       .  A
C3655      C3660   1.403       .  A
C3655      H3662   1.084       .  S
C3656      C3657   1.411       .  A
C3657      C3658   1.401       .  A
C3657      N3664   1.439       .  S
C3658      C3659   1.403       .  A
C3658      H3663   1.083       .  S
C3659      C3660   1.421       .  A
C3660      N3661   1.439       .  S
N3661      H3665   1.046       .  S
N3661      H3666   1.046       .  S
N3664      H3667   1.046       .  S
N3664      H3668   1.046       .  S
C3669      C3670   1.403       .  A
C3669      C3674   1.403       .  A
C3669      H3676   1.084       .  S
C3670      C3671   1.416       .  A
C3671      C3672   1.406       .  A
C3671      N3678   1.438       .  S
C3672      C3673   1.401       .  A
C3672      H3677   1.084       .  S
C3673      C3674   1.419       .  A
C3674      N3675   1.439       .  S
N3675      H3679   1.045       .  S
N3675      H3680   1.042       .  S
N3678      H3681   1.046       .  S
N3678      H3682   1.046       .  S
C3683      C3684   1.396       .  A
C3683      C3688   1.397       .  A
C3683      H3690   1.084       .  S
C3684      C3685   1.415       .  A
C3685      C3686   1.396       .  A
C3685      N3692   1.434       .  S
C3686      C3687   1.404       .  A
C3686      H3691   1.084       .  S
C3687      C3688   1.425       .  A
C3688      N3689   1.433       .  S
N3689      H3693   1.044       .  S
N3689      H3694   1.046   1_655  S
N3692      H3695   1.046       .  S
N3692      H3696   1.045       .  S
C3697      C3698   1.402   1_455  A
C3697      C3702   1.408       .  A
C3697      H3704   1.084       .  S
C3698      C3699   1.414       .  A
C3699      C3700   1.400       .  A
C3699      N3706   1.439       .  S
C3700      C3701   1.404   1_655  A
C3700      H3705   1.083       .  S
C3701      C3702   1.420       .  A
C3702      N3703   1.438       .  S
N3703      H3707   1.046       .  S
N3703      H3708   1.046       .  S
N3706      H3709   1.046       .  S
N3706      H3710   1.046       .  S
C3711      C3712   1.406       .  A
C3711      C3716   1.401       .  A
C3711      H3718   1.083       .  S
C3712      C3713   1.410       .  A
C3713      C3714   1.409       .  A
C3713      N3720   1.437       .  S
C3714      C3715   1.407       .  A
C3714      H3719   1.084       .  S
C3715      C3716   1.410       .  A
C3716      N3717   1.439       .  S
N3717      H3721   1.046       .  S
N3717      H3722   1.045   1_655  S
N3720      H3723   1.046       .  S
N3720      H3724   1.046       .  S
C3725      C3726   1.410       .  A
C3725      C3730   1.398       .  A
C3725      H3732   1.083       .  S
C3726      C3727   1.411       .  A
C3727      C3728   1.400       .  A
C3727      N3734   1.438       .  S
C3728      C3729   1.406       .  A
C3728      H3733   1.083       .  S
C3729      C3730   1.404       .  A
C3730      N3731   1.433       .  S
N3731      H3735   1.046       .  S
N3731      H3736   1.046       .  S
N3734      H3737   1.046       .  S
N3734      H3738   1.046       .  S
C3739      C3740   1.410       .  A
C3739      C3744   1.406       .  A
C3739      H3746   1.083       .  S
C3740      C3741   1.417       .  A
C3741      C3742   1.403       .  A
C3741      N3748   1.432       .  S
C3742      C3743   1.409       .  A
C3742      H3747   1.084       .  S
C3743      C3744   1.412       .  A
C3744      N3745   1.438       .  S
N3745      H3749   1.045       .  S
N3745      H3750   1.046       .  S
N3748      H3751   1.046       .  S
N3748      H3752   1.045       .  S
C3753      C3754   1.405       .  A
C3753      C3758   1.396       .  A
C3753      H3760   1.084       .  S
C3754      C3755   1.409       .  A
C3755      C3756   1.408       .  A
C3755      N3762   1.437       .  S
C3756      C3757   1.408       .  A
C3756      H3761   1.084       .  S
C3757      C3758   1.407       .  A
C3758      N3759   1.439       .  S
N3759      H3763   1.046       .  S
N3759      H3764   1.045       .  S
N3762      H3765   1.045       .  S
N3762      H3766   1.046       .  S
C3767      C3768   1.402       .  A
C3767      C3772   1.407       .  A
C3767      H3774   1.084       .  S
C3768      C3769   1.414       .  A
C3769      C3770   1.403       .  A
C3769      N3776   1.439       .  S
C3770      C3771   1.401       .  A
C3770      H3775   1.084       .  S
C3771      C3772   1.412       .  A
C3772      N3773   1.438       .  S
N3773      H3777   1.046       .  S
N3773      H3778   1.045       .  S
N3776      H3779   1.045       .  S
N3776      H3780   1.046       .  S
C3781      C3782   1.398       .  A
C3781      C3786   1.398       .  A
C3781      H3788   1.084       .  S
C3782      C3783   1.421       .  A
C3783      C3784   1.401       .  A
C3783      N3790   1.432       .  S
C3784      C3785   1.403       .  A
C3784      H3789   1.084       .  S
C3785      C3786   1.420       .  A
C3786      N3787   1.433       .  S
N3787      H3791   1.046       .  S
N3787      H3792   1.046       .  S
N3790      H3793   1.046       .  S
N3790      H3794   1.045       .  S
C3795      C3796   1.401   1_455  A
C3795      C3800   1.406       .  A
C3795      H3802   1.084       .  S
C3796      C3797   1.416   1_554  A
C3797      C3798   1.406       .  A
C3797      N3804   1.439       .  S
C3798      C3799   1.405   1_656  A
C3798      H3803   1.083       .  S
C3799      C3800   1.421       .  A
C3800      N3801   1.438       .  S
N3801      H3805   1.046       .  S
N3801      H3806   1.046       .  S
N3804      H3807   1.046       .  S
N3804      H3808   1.046       .  S
C3809      C3810   1.406       .  A
C3809      C3814   1.396       .  A
C3809      H3816   1.084       .  S
C3810      C3811   1.408       .  A
C3811      C3812   1.404       .  A
C3811      N3818   1.438       .  S
C3812      C3813   1.411       .  A
C3812      H3817   1.083       .  S
C3813      C3814   1.408       .  A
C3814      N3815   1.433       .  S
N3815      H3819   1.046       .  S
N3815      H3820   1.046       .  S
N3818      H3821   1.046       .  S
N3818      H3822   1.046       .  S
C3823      C3824   1.407   1_655  A
C3823      C3828   1.409       .  A
C3823      H3830   1.083       .  S
C3824      C3825   1.419       .  A
C3825      C3826   1.406       .  A
C3825      N3832   1.438       .  S
C3826      C3827   1.400   1_455  A
C3826      H3831   1.084       .  S
C3827      C3828   1.414       .  A
C3828      N3829   1.438       .  S
N3829      H3833   1.046       .  S
N3829      H3834   1.046       .  S
N3832      H3835   1.046       .  S
N3832      H3836   1.046       .  S
C3837      C3838   1.404       .  A
C3837      C3842   1.407       .  A
C3837      H3844   1.084       .  S
C3838      C3839   1.417       .  A
C3839      C3840   1.397       .  A
C3839      N3846   1.432   1_655  S
C3840      C3841   1.400       .  A
C3840      H3845   1.084       .  S
C3841      C3842   1.411       .  A
C3842      N3843   1.438       .  S
N3843      H3847   1.046       .  S
N3843      H3848   1.044       .  S
N3846      H3849   1.044       .  S
N3846      H3850   1.045       .  S
C3851      C3852   1.412       .  A
C3851      C3856   1.405       .  A
C3851      H3858   1.083       .  S
C3852      C3853   1.409       .  A
C3853      C3854   1.398       .  A
C3853      N3860   1.433       .  S
C3854      C3855   1.407       .  A
C3854      H3859   1.084       .  S
C3855      C3856   1.407       .  A
C3856      N3857   1.438       .  S
N3857      H3861   1.046       .  S
N3857      H3862   1.046       .  S
N3860      H3863   1.046       .  S
N3860      H3864   1.046       .  S
C3865      C3866   1.410       .  A
C3865      C3870   1.406       .  A
C3865      H3872   1.083       .  S
C3866      C3867   1.415   1_554  A
C3867      C3868   1.409       .  A
C3867      N3874   1.438       .  S
C3868      C3869   1.408       .  A
C3868      H3873   1.083       .  S
C3869      C3870   1.409   1_556  A
C3870      N3871   1.432       .  S
N3871      H3875   1.046       .  S
N3871      H3876   1.046       .  S
N3874      H3877   1.046       .  S
N3874      H3878   1.046       .  S
C3879      C3880   1.404       .  A
C3879      C3884   1.395       .  A
C3879      H3886   1.084       .  S
C3880      C3881   1.419       .  A
C3881      C3882   1.403       .  A
C3881      N3888   1.439       .  S
C3882      C3883   1.401       .  A
C3882      H3887   1.082       .  S
C3883      C3884   1.410       .  A
C3884      N3885   1.433       .  S
N3885      H3889   1.044       .  S
N3885      H3890   1.046       .  S
N3888      H3891   1.042       .  S
N3888      H3892   1.046       .  S
C3893      C3894   1.406       .  A
C3893      C3898   1.397       .  A
C3893      H3900   1.084       .  S
C3894      C3895   1.407       .  A
C3895      C3896   1.405       .  A
C3895      N3902   1.438       .  S
C3896      C3897   1.412       .  A
C3896      H3901   1.083       .  S
C3897      C3898   1.408       .  A
C3898      N3899   1.433       .  S
N3899      H3903   1.046       .  S
N3899      H3904   1.046       .  S
N3902      H3905   1.046       .  S
N3902      H3906   1.046       .  S
C3907      C3908   1.413   1_556  A
C3907      C3912   1.410   1_556  A
C3907      H3914   1.083       .  S
C3908      C3909   1.412       .  A
C3909      C3910   1.407       .  A
C3909      N3916   1.432       .  S
C3910      C3911   1.407       .  A
C3910      H3915   1.084       .  S
C3911      C3912   1.409       .  A
C3912      N3913   1.438   1_554  S
N3913      H3917   1.046       .  S
N3913      H3918   1.046   1_556  S
N3916      H3919   1.046       .  S
N3916      H3920   1.046       .  S
C3921      C3922   1.406       .  A
C3921      C3926   1.406       .  A
C3921      H3928   1.084       .  S
C3922      C3923   1.405       .  A
C3923      C3924   1.399       .  A
C3923      N3930   1.433   1_556  S
C3924      C3925   1.409       .  A
C3924      H3929   1.084       .  S
C3925      C3926   1.410       .  A
C3926      N3927   1.437       .  S
N3927      H3931   1.046       .  S
N3927      H3932   1.046       .  S
N3930      H3933   1.045   1_554  S
N3930      H3934   1.046       .  S
C3935      C3936   1.412       .  A
C3935      C3940   1.406       .  A
C3935      H3942   1.083       .  S
C3936      C3937   1.409       .  A
C3937      C3938   1.400       .  A
C3937      N3944   1.438       .  S
C3938      C3939   1.409       .  A
C3938      H3943   1.083       .  S
C3939      C3940   1.408       .  A
C3940      N3941   1.438       .  S
N3941      H3945   1.046       .  S
N3941      H3946   1.046       .  S
N3944      H3947   1.046       .  S
N3944      H3948   1.046       .  S
C3949      C3950   1.409       .  A
C3949      C3954   1.409       .  A
C3949      H3956   1.083       .  S
C3950      C3951   1.410   1_455  A
C3951      C3952   1.403       .  A
C3951      N3958   1.433       .  S
C3952      C3953   1.409       .  A
C3952      H3957   1.084       .  S
C3953      C3954   1.413   1_655  A
C3954      N3955   1.437       .  S
N3955      H3959   1.046       .  S
N3955      H3960   1.046   1_554  S
N3958      H3961   1.046       .  S
N3958      H3962   1.046       .  S
C3963      C3964   1.401       .  A
C3963      C3968   1.400       .  A
C3963      H3970   1.084       .  S
C3964      C3965   1.405       .  A
C3965      C3966   1.411       .  A
C3965      N3972   1.437       .  S
C3966      C3967   1.413       .  A
C3966      H3971   1.083       .  S
C3967      C3968   1.414       .  A
C3968      N3969   1.438       .  S
N3969      H3973   1.046       .  S
N3969      H3974   1.045       .  S
N3972      H3975   1.046       .  S
N3972      H3976   1.046       .  S
C3977      C3978   1.401       .  A
C3977      C3982   1.390       .  A
C3977      H3984   1.084       .  S
C3978      C3979   1.419       .  A
C3979      C3980   1.407       .  A
C3979      N3986   1.438       .  S
C3980      C3981   1.401       .  A
C3980      H3985   1.084       .  S
C3981      C3982   1.415       .  A
C3982      N3983   1.434       .  S
N3983      H3987   1.046       .  S
N3983      H3988   1.044       .  S
N3986      H3989   1.046       .  S
N3986      H3990   1.046       .  S
C3991      C3992   1.408       .  A
C3991      C3996   1.397       .  A
C3991      H3998   1.083       .  S
C3992      C3993   1.414       .  A
C3993      C3994   1.408       .  A
C3993      N4000   1.438       .  S
C3994      C3995   1.410       .  A
C3994      H3999   1.083       .  S
C3995      C3996   1.415       .  A
C3996      N3997   1.432       .  S
N3997      H4001   1.045       .  S
N3997      H4002   1.046   1_455  S
N4000      H4003   1.046       .  S
N4000      H4004   1.046       .  S
C4005      C4006   1.405       .  A
C4005      C4010   1.411       .  A
C4005      H4012   1.084       .  S
C4006      C4007   1.405       .  A
C4007      C4008   1.400       .  A
C4007      N4014   1.433       .  S
C4008      C4009   1.404       .  A
C4008      H4013   1.084       .  S
C4009      C4010   1.411       .  A
C4010      N4011   1.437       .  S
N4011      H4015   1.046       .  S
N4011      H4016   1.046       .  S
N4014      H4017   1.046       .  S
N4014      H4018   1.046       .  S
C4019      C4020   1.396       .  A
C4019      C4024   1.399       .  A
C4019      H4026   1.084       .  S
C4020      C4021   1.418       .  A
C4021      C4022   1.406       .  A
C4021      N4028   1.433       .  S
C4022      C4023   1.405       .  A
C4022      H4027   1.084       .  S
C4023      C4024   1.420       .  A
C4024      N4025   1.439       .  S
N4025      H4029   1.046       .  S
N4025      H4030   1.045   1_556  S
N4028      H4031   1.046       .  S
N4028      H4032   1.044       .  S
