geometry optimzed in LAMMPS
_audit_creation_date              2020-12-01 
_audit_creation_method            'lammps2cif' 
_symmetry_space_group_name_H-M    'P1' 
_symmetry_Int_Tables_number       1 
_symmetry_cell_setting            triclinic 
loop_ 
_symmetry_equiv_pos_as_xyz 
  x,y,z 
_cell_length_a                    35.36374532 
_cell_length_b                    34.735034980091655 
_cell_length_c                    22.16511763102046 
_cell_angle_alpha                 87.85849292084153 
_cell_angle_beta                  86.98834556933039 
_cell_angle_gamma                 86.76561493779245 
loop_ 
_atom_site_label 
_atom_site_type_symbol 
_atom_site_fract_x 
_atom_site_fract_y 
_atom_site_fract_z 
_atom_site_charge 
C1          C  0.26477306  0.27554783  0.73053449     0.86900
C2          C  0.30019046  0.26898747  0.76710316    -0.53400
C3          C  0.30387495  0.23411830  0.79719736     0.09800
C4          C  0.26775421  0.20932600  0.79167316     0.20700
C5          C  0.26540083  0.23886424  0.69052516    -0.54100
C6          C  0.26704869  0.20377556  0.72332115     0.09900
C7          C  0.23111649  0.27040735  0.77530091    -0.53600
C8          C  0.23026605  0.23566221  0.80538880     0.10400
H9          H  0.32276336  0.28907042  0.76411634     0.15000
H10         H  0.26899317  0.18169598  0.81855622     0.00700
H11         H  0.26460803  0.24064444  0.64162338     0.15300
H12         H  0.20690041  0.29118261  0.77689201     0.15100
O13         O  0.17250562  0.09084396  0.52211165    -0.74900
O14         O  0.22984065  0.11802947  0.51310939    -0.53800
C15         C  0.19357782  0.11988638  0.51676318     0.78800
O16         O  0.25909380  0.42014443  0.67262205    -0.59500
O17         O  0.23151401  0.38543535  0.60289923    -0.52600
C18         C  0.24856151  0.38762930  0.65206453     0.70800
O19         O  0.26204627  0.06200476  0.66765529    -0.74100
O20         O  0.28603479  0.10036716  0.59072816    -0.54700
C21         C  0.27307884  0.09529369  0.64515837     0.76800
O22         O  0.13363864  0.47209996  0.49048311    -0.59200
O23         O  0.16215349  0.41411492  0.51552148    -0.52400
C24         C  0.13463717  0.43518648  0.49414313     0.73400
Zr25       Zr  0.17002305  0.51964376  0.53540416     2.54700
O26         O  0.13609297  0.51144240  0.63326831    -0.79800
O27         O  0.10717494  0.54809096  0.51475600    -0.93200
Zr28       Zr  0.25387948  0.49277700  0.64549563     2.64700
O29         O  0.21269988  0.49100709  0.73700138    -0.98200
O30         O  0.30693936  0.48721569  0.71169990    -0.80200
O31         O  0.23021836  0.04154982  0.57606598    -0.83600
O32         O  0.20166696  0.47015306  0.59388423    -2.18300
O33         O  0.23535549  0.43472667  0.34835627    -0.67000
O34         O  0.22300219  0.39273119  0.42804497    -0.51500
C35         C  0.22953363  0.40005905  0.37163169     0.71800
O36         O  0.37080603  0.02231605  0.44834548    -0.59900
O37         O  0.34133567  0.07981425  0.47330471    -0.51900
C38         C  0.36964561  0.05917744  0.45066401     0.73600
O39         O  0.32994005  0.40684829  0.49276470    -0.71300
O40         O  0.27397639  0.37696802  0.49951991    -0.50000
C41         C  0.30998678  0.37718650  0.49170397     0.75000
O42         O  0.25322310  0.07495091  0.34139658    -0.66600
O43         O  0.27374283  0.11005693  0.41722317    -0.53800
C44         C  0.26188939  0.10763129  0.36398778     0.73400
Zr45       Zr  0.25036899  0.00319074  0.37546896     2.77500
O46         O  0.29891939  0.00099679  0.29335526    -0.97400
O47         O  0.19952863  0.01245676  0.30563131    -0.78200
Zr48       Zr  0.32287515  0.47593350  0.50215842     2.70100
O49         O  0.37983749  0.45212230  0.44562232    -0.79400
O50         O  0.36162093  0.46991504  0.59002140    -0.98500
Zr51       Zr  0.27587217  0.06520310  0.50264559     2.21500
Zr52       Zr  0.22835397  0.42919713  0.51664853     2.11100
O53         O  0.27361345  0.45539651  0.44485266    -2.47200
O54         O  0.29631671  0.01824758  0.43869490    -0.79200
O55         O  0.19546477  0.47790871  0.45880366    -0.71400
O56         O  0.30857949  0.01784309  0.56432938    -2.32400
O57         O  0.22324120  0.04667878  0.44858576    -2.28600
O58         O  0.27912101  0.44880084  0.57265873    -0.73200
H59         H  0.18467146  0.45622960  0.62101198     0.78800
H60         H  0.32875702  0.02881995  0.58444255     0.79900
H61         H  0.28505435  0.43625785  0.41829613     0.82100
H62         H  0.21018879  0.06821453  0.42848649     0.79700
H63         H  0.31431492  0.96233808  0.72025397     0.42800
H64         H  0.36867232  0.44198525  0.59417556     0.41700
H65         H  0.38423788  0.95016281  0.39580405     0.41400
H66         H  0.30434950  0.52263590  0.30919982     0.39400
H67         H  0.17003474  0.52992776  0.33786278     0.42500
H68         H  0.09927509  0.03504492  0.51296408     0.37300
H69         H  0.14418478  0.03766129  0.63747314     0.43400
H70         H  0.18870160  0.50459839  0.72528668     0.39800
H71         H  0.31921155  0.98295624  0.30857503     0.44700
H72         H  0.10544339  0.54674225  0.47043785     0.43400
H73         H  0.20646089  0.46365106  0.74293391     0.43600
H74         H  0.38552173  0.48193135  0.57674473     0.43900
N75         N  0.98445271  0.30902772  0.34518786    -0.36200
N76         N  0.05822417  0.27197819  0.36261400    -0.56800
N77         N  0.03026408  0.19440543  0.36058188    -0.36200
N78         N  0.45398512  0.23029349  0.33551692    -0.56800
C79         C  0.00230352  0.33752860  0.37014991     0.27300
C80         C  0.45550697  0.31426431  0.36986902     0.27300
C81         C  0.06301083  0.18658664  0.38834882     0.27300
C82         C  0.50468250  0.16643035  0.30561125     0.27300
C83         C  0.06748432  0.30908359  0.35603432     0.36000
C84         C  0.09087193  0.25075642  0.36964560     0.36000
C85         C  0.42383917  0.25153576  0.35784612     0.36000
C86         C  0.44245719  0.19381996  0.33401778     0.36000
C87         C  0.97603775  0.36279591  0.39848361    -0.21500
C88         C  0.45239499  0.35364513  0.37975853    -0.21500
C89         C  0.06286732  0.14945631  0.41425928    -0.21500
C90         C  0.51099880  0.18990553  0.25459110    -0.21500
C91         C  0.10652885  0.31124942  0.35513616    -0.22600
C92         C  0.12130156  0.27445540  0.36480644    -0.22600
C93         C  0.39269465  0.22883640  0.36717768    -0.22600
C94         C  0.40451368  0.19234692  0.35182700    -0.22600
C95         C  0.04181673  0.34011934  0.37074833    -0.17900
C96         C  0.42435422  0.29004929  0.37555329    -0.17900
C97         C  0.46794963  0.16135570  0.33034662    -0.17900
C98         C  0.09222307  0.21256926  0.39349440    -0.17900
H99         H  0.98148808  0.38821046  0.42277003     0.15000
H100        H  0.42665440  0.37134410  0.38861425     0.15000
H101        H  0.08521104  0.13382167  0.43797928     0.15000
H102        H  0.49061990  0.19893873  0.22139618     0.15000
H103        H  0.12239883  0.33703245  0.35448338     0.13300
H104        H  0.15083851  0.26701213  0.37177672     0.13300
H105        H  0.36480116  0.23688073  0.38657617     0.13300
H106        H  0.38789566  0.16710743  0.35751952     0.13300
H107        H  0.99688777  0.28735116  0.31827133     0.26500
H108        H  0.02365822  0.21888459  0.33414357     0.26500
C109        C  0.24886861  0.22043329  0.28400376     0.86900
C110        C  0.28366802  0.22767004  0.24236350    -0.53400
C111        C  0.28357718  0.26253747  0.21238839     0.09800
C112        C  0.24451607  0.28694200  0.22346352     0.20700
C113        C  0.24472068  0.25708756  0.32457152    -0.54100
C114        C  0.24227166  0.29229974  0.29194689     0.09900
C115        C  0.21463084  0.22552483  0.24433360    -0.53600
C116        C  0.21005483  0.26056657  0.21489951     0.10400
H117        H  0.30871164  0.20797694  0.24198183     0.15000
H118        H  0.24279420  0.31464621  0.19680353     0.00700
H119        H  0.24338866  0.25519100  0.37360733     0.15300
H120        H  0.19279035  0.20463380  0.24604069     0.15100
N121        N  0.23722884  0.48238600  0.00736937    -0.36200
N122        N  0.30125068  0.48781995  0.07321973    -0.56800
N123        N  0.26904288  0.03478600  0.16167825    -0.36200
N124        N  0.19240114  0.52714461  0.09046255    -0.56800
C125        C  0.26324574  0.46750888  0.96728782     0.27300
C126        C  0.20492397  0.48935006  0.97886362     0.27300
C127        C  0.30449962  0.04749215  0.15692016     0.27300
C128        C  0.24615049  0.06489855  0.18071037     0.27300
C129        C  0.31485099  0.45927936  0.03742508     0.36000
C130        C  0.33358747  0.99450276  0.09660788     0.36000
C131        C  0.16539201  0.50677907  0.06774222     0.36000
C132        C  0.18685973  0.03790844  0.15575481     0.36000
C133        C  0.24790711  0.46594274  0.91127752    -0.21500
C134        C  0.21070680  0.47985175  0.91865326    -0.21500
C135        C  0.30435516  0.08452275  0.17884120    -0.21500
C136        C  0.26747999  0.09543411  0.19382143    -0.21500
C137        C  0.34956346  0.44445151  0.05682932    -0.22600
C138        C  0.36341592  0.96775776  0.08594744    -0.22600
C139        C  0.13441240  0.50490390  0.10843088    -0.22600
C140        C  0.15034989  0.02854219  0.17393050    -0.22600
C141        C  0.29777183  0.44988455  0.98412525    -0.17900
C142        C  0.16993656  0.48933794  0.01124603    -0.17900
C143        C  0.20643376  0.06748237  0.17884090    -0.17900
C144        C  0.33606785  0.02859358  0.12692183    -0.17900
H145        H  0.26119592  0.45343163  0.87092172     0.15000
H146        H  0.18929477  0.47902936  0.88564170     0.15000
H147        H  0.32783724  0.10303120  0.18025907     0.15000
H148        H  0.25721039  0.12371241  0.20827040     0.15000
H149        H  0.36835047  0.42259801  0.03583950     0.13300
H150        H  0.39071874  0.96636403  0.10605403     0.13300
H151        H  0.10821638  0.49113227  0.10258115     0.13300
H152        H  0.13390922  0.03815515  0.21363255     0.13300
H153        H  0.23835978  0.47856418  0.05406670     0.26500
H154        H  0.26063802  0.00817271  0.14860975     0.26500
O155        O  0.08727090  0.22289989  0.85315178    -0.74900
O156        O  0.12208135  0.24563275  0.92694204    -0.53800
C157        C  0.11967642  0.23087125  0.87544400     0.78800
O158        O  0.43186591  0.34556100  0.93126447    -0.59500
O159        O  0.39395457  0.29746777  0.96389774    -0.52600
C160        C  0.39943191  0.33098940  0.93954838     0.70800
O161        O  0.05023406  0.36415969  0.96231601    -0.74100
O162        O  0.10084619  0.32414430  0.98495076    -0.54700
C163        C  0.08536775  0.35759903  0.97197774     0.76800
O164        O  0.44595779  0.21892989  0.84599469    -0.59200
O165        O  0.40120210  0.22521868  0.92394170    -0.52400
C166        C  0.41045729  0.21976576  0.86854809     0.73400
Zr167      Zr  0.01535821  0.22769881  0.88377444     2.54700
O168        O  0.52025334  0.24849393  0.77696786    -0.79800
O169        O  0.51956676  0.15909831  0.84664493    -0.93200
Zr170      Zr  0.99485217  0.32697867  0.97028101     2.64700
O171        O  0.99117259  0.36418104  0.87514874    -0.98200
O172        O  0.97863191  0.38460202  0.02748564    -0.80200
O173        O  0.04095445  0.28350664  0.92377316    -0.83600
O174        O  0.47022697  0.27334866  0.91789454    -2.18300
O175        O  0.46052175  0.14937591  0.07289490    -0.67000
O176        O  0.41077218  0.18420999  0.03374852    -0.51500
C177        C  0.42592542  0.15393044  0.05993452     0.71800
O178        O  0.06744984  0.27621031  0.16953016    -0.59900
O179        O  0.11121201  0.27894630  0.08979676    -0.51900
C180        C  0.10258014  0.27845806  0.14633687     0.73600
O181        O  0.42520493  0.28316040  0.15871627    -0.71300
O182        O  0.39030663  0.26229413  0.08370051    -0.50000
C183        C  0.39280807  0.27498276  0.13660226     0.75000
O184        O  0.07705526  0.17501048  0.10471533    -0.66600
O185        O  0.11869209  0.21172584  0.05104803    -0.53800
C186        C  0.11057571  0.18609956  0.09207900     0.73400
Zr187      Zr  0.02023634  0.17497250  0.04838783     2.77500
O188        O  0.02215809  0.12073687  0.12157597    -0.97400
O189        O  0.04877215  0.12318606  0.98700760    -0.78200
Zr190      Zr  0.99815745  0.27340356  0.13455310     2.70100
O191        O  0.99750928  0.23258113  0.22562985    -0.79400
O192        O  0.99204802  0.33105413  0.19433252    -0.98500
Zr193      Zr  0.07658926  0.26108405  0.00738454     2.21500
Zr194      Zr  0.43601722  0.24626510  0.00369313     2.11100
O195        O  0.47079516  0.22731652  0.09039179    -2.47200
O196        O  0.04379499  0.22966942  0.08964161    -0.79200
O197        O  0.48039373  0.19742492  0.96690379    -0.71400
O198        O  0.03153750  0.30618007  0.05303337    -2.32400
O199        O  0.05353773  0.20499638  0.96551060    -2.28600
O200        O  0.46055287  0.30357684  0.03840005    -0.73200
H201        H  0.45376437  0.28164176  0.88605156     0.78800
H202        H  0.04375874  0.32744244  0.06896863     0.79900
H203        H  0.45493474  0.21586517  0.12221973     0.82100
H204        H  0.07426231  0.18774192  0.95194658     0.79700
H205        H  0.97259157  0.37478315  0.06919083     0.42800
H206        H  0.47157542  0.35594143  0.17741937     0.41700
H207        H  0.01062810  0.20797880  0.21323604     0.41400
H208        H  0.54383565  0.11472836  0.12123507     0.39400
H209        H  0.57517102  0.12479457  0.01496514     0.42500
H210        H  0.00611885  0.17373871  0.79252592     0.37300
H211        H  0.03931148  0.25737550  0.76713571     0.43400
H212        H  0.48771326  0.33757157  0.82632656     0.39800
H213        H  0.02270814  0.13260941  0.16144436     0.44700
H214        H  0.53884417  0.14552142  0.87171119     0.43400
H215        H  0.01049479  0.35140847  0.84755755     0.43600
H216        H  0.96505415  0.34008252  0.19259661     0.43900
C217        C  0.36020704  0.07407694  0.04905300    -0.13000
C218        C  0.36589771  0.05366526  0.10413459     0.09200
C219        C  0.39225575  0.06551994  0.14331640    -0.13000
C220        C  0.41106036  0.09900612  0.12918154    -0.13000
C221        C  0.40355477  0.12083983  0.07593088     0.09200
C222        C  0.37871301  0.10779301  0.03523091    -0.13000
H223        H  0.33927869  0.06541412  0.01897948     0.13200
H224        H  0.39602277  0.05059986  0.18656116     0.13200
H225        H  0.43079283  0.10848563  0.16059983     0.13200
H226        H  0.37368810  0.12359723  0.99307857     0.13200
C227        C  0.09250495  0.42893095  0.96148962    -0.13000
C228        C  0.10844235  0.39143849  0.97385386     0.09200
C229        C  0.14454926  0.38704147  0.99712482    -0.13000
C230        C  0.16354591  0.41924570  0.01036337    -0.13000
C231        C  0.14724658  0.45651364  0.99956919     0.09200
C232        C  0.11192601  0.46138245  0.97420077    -0.13000
H233        H  0.06459207  0.43321112  0.94366956     0.13200
H234        H  0.15754093  0.35875710  0.00756773     0.13200
H235        H  0.19118467  0.41515804  0.02931734     0.13200
H236        H  0.09946465  0.49002199  0.96469959     0.13200
C237        C  0.34697901  0.42423102  0.91104332    -0.13000
C238        C  0.31493800  0.41811530  0.94884467     0.09200
C239        C  0.30509319  0.38050694  0.96530737    -0.13000
C240        C  0.33083133  0.34959705  0.95329139    -0.13000
C241        C  0.36641690  0.35668493  0.92538022     0.09200
C242        C  0.37251580  0.39334964  0.89844545    -0.14800
H243        H  0.35442086  0.45325156  0.89758102     0.13200
H244        H  0.27990159  0.37567182  0.99395031     0.13200
H245        H  0.32496292  0.32143773  0.97306409     0.13200
H246        H  0.39923460  0.39932498  0.87475888     0.13200
C247        C  0.15656656  0.11895107  0.20447385    -0.13000
C248        C  0.18840691  0.10629339  0.16916104     0.09200
C249        C  0.19904776  0.12712596  0.11587553    -0.13000
C250        C  0.17564046  0.15736014  0.09430541    -0.13000
C251        C  0.14100116  0.16632815  0.12514818     0.09200
C252        C  0.13279907  0.14900293  0.18242164    -0.13000
H253        H  0.14841582  0.10350719  0.24604280     0.13200
H254        H  0.22358210  0.11752826  0.08790157     0.13200
H255        H  0.18248312  0.17043357  0.05021797     0.13200
H256        H  0.10636228  0.15628674  0.20739681     0.13200
C257        C  0.32154179  0.27583158  0.18883793    -0.12900
C258        C  0.35526953  0.27873698  0.17093607    -0.14500
C259        C  0.17057344  0.27324984  0.19735670    -0.12900
C260        C  0.13711837  0.27782466  0.18242582    -0.14500
C261        C  0.23277334  0.36494281  0.33527943    -0.12900
C262        C  0.23687671  0.33172819  0.31676025    -0.14500
C263        C  0.25652060  0.14564737  0.33106921    -0.12900
C264        C  0.25236987  0.17982667  0.31297236    -0.14500
C265        C  0.32621175  0.33164919  0.41349502    -0.13000
C266        C  0.33059302  0.34246281  0.47284961     0.09200
C267        C  0.36326015  0.33063987  0.50283910    -0.13000
C268        C  0.39316536  0.31162107  0.47141130    -0.13000
C269        C  0.39057028  0.30513886  0.40980756     0.09200
C270        C  0.35654782  0.31363417  0.38140234    -0.13000
H271        H  0.30134304  0.34150932  0.38974785     0.13200
H272        H  0.36705277  0.33963910  0.54832205     0.13200
H273        H  0.41930506  0.30442327  0.49371675     0.13200
H274        H  0.35426728  0.30806773  0.33398620     0.13200
C275        C  0.13864113  0.16696143  0.52806467    -0.13000
C276        C  0.17463241  0.15709836  0.50212361     0.09200
C277        C  0.18648506  0.17481045  0.44707676    -0.13000
C278        C  0.16010940  0.19464622  0.41164036    -0.13000
C279        C  0.12274587  0.20070784  0.43439635     0.09200
C280        C  0.11323702  0.19029886  0.49509462    -0.13000
H281        H  0.12900967  0.15356244  0.57061835     0.13200
H282        H  0.21447099  0.16808425  0.42738658     0.13200
H283        H  0.16811877  0.20231598  0.36510996     0.13200
H284        H  0.08456663  0.19568631  0.51373949     0.13200
C285        C  0.08813690  0.38421704  0.49702540    -0.13000
C286        C  0.10415719  0.41600786  0.46723918     0.09200
C287        C  0.09425293  0.42669731  0.40803600    -0.13000
C288        C  0.07103538  0.40374109  0.37711741    -0.13000
C289        C  0.05699156  0.37056034  0.40589364     0.09200
C290        C  0.06422205  0.36192208  0.46674553    -0.13000
H291        H  0.09546299  0.37571288  0.54264296     0.13200
H292        H  0.10678660  0.45105306  0.38426691     0.13200
H293        H  0.06616593  0.41029589  0.32990984     0.13200
H294        H  0.05373223  0.33609083  0.48913622     0.13200
C295        C  0.42065672  0.10578235  0.45610578    -0.13000
C296        C  0.40255610  0.07904392  0.42343223     0.09200
C297        C  0.41447313  0.07319324  0.36278720    -0.13000
C298        C  0.44109464  0.09681901  0.33341627    -0.13000
C299        C  0.45676856  0.12596148  0.36473480     0.09200
C300        C  0.44818815  0.12846628  0.42730600    -0.13000
H301        H  0.41217714  0.11040949  0.50305961     0.13200
H302        H  0.40087609  0.05256941  0.33683764     0.13200
H303        H  0.44640380  0.09500647  0.28498971     0.13200
H304        H  0.45929438  0.15129369  0.45204358     0.13200
C305        C  0.34284944  0.22100425  0.81670349    -0.12900
C306        C  0.37620236  0.21725589  0.83246475    -0.14500
C307        C  0.15743058  0.22359401  0.84346490    -0.12900
C308        C  0.19160221  0.22399496  0.82740542    -0.14500
C309        C  0.26190061  0.31574444  0.70091831    -0.12900
C310        C  0.25709140  0.34972259  0.68292755    -0.14500
C311        C  0.26975314  0.13111159  0.67993128    -0.12900
C312        C  0.26814822  0.16434738  0.69846055    -0.14500
C313        C  0.26203021  0.77687822  0.72801832     0.86900
C314        C  0.29735606  0.77032482  0.76469500    -0.53400
C315        C  0.30014078  0.73615541  0.79677836     0.09800
C316        C  0.26316695  0.71243056  0.79346407     0.20700
C317        C  0.26159763  0.73919617  0.69061776    -0.54100
C318        C  0.26230006  0.70517042  0.72605542     0.09900
C319        C  0.22808331  0.77384131  0.77304662    -0.53600
C320        C  0.22615527  0.73978689  0.80508508     0.10400
H321        H  0.32079864  0.78932663  0.75936952     0.15000
H322        H  0.26371210  0.68557605  0.82230196     0.00700
H323        H  0.26089336  0.73954254  0.64171128     0.15300
H324        H  0.20423032  0.79503110  0.77257348     0.15100
O325        O  0.15933214  0.58910167  0.52856134    -0.74900
O326        O  0.21535804  0.61860369  0.51824985    -0.53800
C327        C  0.17904290  0.61883161  0.51935553     0.78800
O328        O  0.26314072  0.91972128  0.66394417    -0.59500
O329        O  0.23774945  0.88516907  0.59167749    -0.52600
C330        C  0.25255958  0.88743047  0.64276799     0.70800
O331        O  0.25668260  0.56245504  0.67863248    -0.74100
O332        O  0.27323392  0.60294463  0.59899948    -0.54700
C333        C  0.26485022  0.59635470  0.65485996     0.76800
O334        O  0.14163033  0.97300516  0.47812951    -0.59200
O335        O  0.16918928  0.91477083  0.50459013    -0.52400
C336        C  0.14185932  0.93599806  0.48288568     0.73400
Zr337      Zr  0.17935063  0.02073535  0.52219242     2.54700
O338        O  0.14292278  0.01268876  0.61776806    -0.79800
O339        O  0.11875631  0.05278016  0.49739402    -0.93200
Zr340      Zr  0.26163453  0.99190652  0.63450846     2.64700
O341        O  0.21779147  0.98956457  0.72297254    -0.98200
O342        O  0.31304282  0.98922231  0.70371776    -0.80200
O343        O  0.22031671  0.54199211  0.58845891    -0.83600
O344        O  0.20946113  0.97072798  0.58135698    -2.18300
O345        O  0.24203755  0.93440373  0.33817249    -0.67000
O346        O  0.22779065  0.89283486  0.41762715    -0.51500
C347        C  0.23450427  0.89997504  0.36128730     0.71800
O348        O  0.36062045  0.52776397  0.46302151    -0.59900
O349        O  0.32893486  0.58352941  0.49125059    -0.51900
C350        C  0.35810241  0.56439302  0.46852092     0.73600
O351        O  0.33607710  0.90384592  0.47068208    -0.71300
O352        O  0.27940930  0.87552128  0.48390079    -0.50000
C353        C  0.31468910  0.87524028  0.46843999     0.75000
O354        O  0.24362231  0.57476471  0.35041519    -0.66600
O355        O  0.26312601  0.61083582  0.42589209    -0.53800
C356        C  0.25237118  0.60763724  0.37212811     0.73400
Zr357      Zr  0.24042495  0.50344707  0.38576755     2.77500
O358        O  0.28825225  0.50087539  0.30278860    -0.97400
O359        O  0.18892318  0.51222290  0.31699076    -0.78200
Zr360      Zr  0.33132678  0.97240451  0.49155597     2.70100
O361        O  0.39011834  0.94962392  0.43903272    -0.79400
O362        O  0.36914989  0.96226644  0.58010507    -0.98500
Zr363      Zr  0.26368715  0.56709229  0.51279431     2.21500
Zr364      Zr  0.23578441  0.92887102  0.50531784     2.11100
O365        O  0.28189512  0.95351320  0.43304934    -2.47200
O366        O  0.29148023  0.52407506  0.44042984    -0.79200
O367        O  0.20402811  0.97818631  0.44635412    -0.71400
O368        O  0.29817275  0.52078131  0.57364653    -2.32400
O369        O  0.21244597  0.54581390  0.45962288    -2.28600
O370        O  0.28696747  0.94649146  0.56283696    -0.73200
H371        H  0.19177527  0.95724366  0.60795671     0.78800
H372        H  0.31806883  0.53275457  0.59312349     0.79900
H373        H  0.29240927  0.93499617  0.40478836     0.82100
H374        H  0.19907105  0.56670445  0.43846550     0.79700
H375        H  0.32337499  0.50830393  0.69796977     0.42800
H376        H  0.38409977  0.93774909  0.57294501     0.41700
H377        H  0.39977168  0.44964655  0.47548512     0.41400
H378        H  0.30992063  0.02660425  0.29250265     0.39400
H379        H  0.18091951  0.99337827  0.31954551     0.42500
H380        H  0.08905234  0.52944822  0.53211577     0.37300
H381        H  0.11887332  0.53480018  0.63698741     0.43400
H382        H  0.20146468  0.01356083  0.71933266     0.39800
H383        H  0.30457240  0.47754001  0.31214518     0.44700
H384        H  0.11826273  0.05188651  0.45284332     0.43400
H385        H  0.20087520  0.96867442  0.71549435     0.43600
H386        H  0.38802561  0.98231307  0.57568144     0.43900
N387        N  0.98788869  0.80298011  0.36025255    -0.36200
N388        N  0.06369301  0.77265750  0.33906984    -0.56800
N389        N  0.03669918  0.66723259  0.36418094    -0.36200
N390        N  0.45845210  0.72957684  0.33670937    -0.56800
C391        C  0.00667885  0.83595173  0.36299050     0.27300
C392        C  0.45053183  0.81429142  0.34845838     0.27300
C393        C  0.06190842  0.69015142  0.33457471     0.27300
C394        C  0.50723484  0.66338984  0.37799960     0.27300
C395        C  0.07288198  0.80790259  0.35425837     0.36000
C396        C  0.09434302  0.74885061  0.34837452     0.36000
C397        C  0.42777023  0.75141881  0.32075526     0.36000
C398        C  0.44957577  0.69263145  0.33261963     0.36000
C399        C  0.98091177  0.86737924  0.36574204    -0.21500
C400        C  0.44524063  0.84894863  0.37807126    -0.21500
C401        C  0.05109747  0.69846791  0.27632640    -0.21500
C402        C  0.52569801  0.63611013  0.41470198    -0.21500
C403        C  0.11108293  0.80752243  0.36572163    -0.22600
C404        C  0.12452469  0.76991673  0.36325407    -0.22600
C405        C  0.39947044  0.72839335  0.30457876    -0.22600
C406        C  0.41335098  0.69098546  0.31197340    -0.22600
C407        C  0.04615980  0.83822478  0.36867728    -0.17900
C408        C  0.42131067  0.78943929  0.33843721    -0.17900
C409        C  0.46934444  0.66184966  0.36204373    -0.17900
C410        C  0.09039776  0.70935697  0.36142828    -0.17900
H411        H  0.98703135  0.89736315  0.36938833     0.15000
H412        H  0.41882996  0.86270058  0.39521901     0.15000
H413        H  0.06498520  0.71687544  0.24268342     0.15000
H414        H  0.51487849  0.60961637  0.43414399     0.15000
H415        H  0.12675517  0.83100256  0.38059044     0.13300
H416        H  0.15238362  0.75956763  0.37622701     0.13300
H417        H  0.37070686  0.73757548  0.29414692     0.13300
H418        H  0.39741355  0.66559114  0.30789775     0.13300
H419        H  0.99903582  0.77483909  0.36589825     0.26500
H420        H  0.03509092  0.65986893  0.41019721     0.26500
C421        C  0.24296816  0.71829675  0.28409296     0.86900
C422        C  0.27736901  0.72292693  0.24056741    -0.53400
C423        C  0.27807318  0.75680153  0.20788935     0.09800
C424        C  0.23996432  0.78289519  0.21845486     0.20700
C425        C  0.24090025  0.75631774  0.32153192    -0.54100
C426        C  0.23930167  0.79056572  0.28631961     0.09900
C427        C  0.20823351  0.72318835  0.24550097    -0.53600
C428        C  0.20434922  0.75731968  0.21340898     0.10400
H429        H  0.30182191  0.70246633  0.24107305     0.15000
H430        H  0.23878790  0.80974656  0.18964583     0.00700
H431        H  0.24070929  0.75597687  0.37051796     0.15300
H432        H  0.18597693  0.70274846  0.24877594     0.15100
N433        N  0.23516439  0.97603164  0.01404693    -0.36200
N434        N  0.30546342  0.98934034  0.05982364    -0.56800
N435        N  0.25946418  0.53171134  0.17132675    -0.36200
N436        N  0.19664182  0.02334214  0.10145799    -0.56800
C437        C  0.25812462  0.95931154  0.97121576     0.27300
C438        C  0.20006099  0.97883469  0.99354494     0.27300
C439        C  0.29498132  0.54385527  0.17334536     0.27300
C440        C  0.23579001  0.56198400  0.18697407     0.27300
C441        C  0.31626189  0.95820354  0.02744295     0.36000
C442        C  0.32651509  0.49138355  0.11544268     0.36000
C443        C  0.16762021  0.00265725  0.08650309     0.36000
C444        C  0.17970433  0.53689005  0.14633082     0.36000
C445        C  0.23778666  0.95222613  0.92149452    -0.21500
C446        C  0.20082474  0.96472125  0.93561061    -0.21500
C447        C  0.29378276  0.58056034  0.19645022    -0.21500
C448        C  0.25627387  0.59200843  0.20502439    -0.21500
C449        C  0.35201092  0.94386355  0.04301165    -0.22600
C450        C  0.35744999  0.46579433  0.10537591    -0.22600
C451        C  0.13845241  0.00510219  0.13058550    -0.22600
C452        C  0.14312488  0.52523288  0.15780328    -0.22600
C453        C  0.29468155  0.94417645  0.98206479    -0.17900
C454        C  0.16763154  0.98252678  0.03260009    -0.17900
C455        C  0.19675999  0.56499915  0.17743636    -0.17900
C456        C  0.32771714  0.52557079  0.14592460    -0.17900
H457        H  0.24796281  0.93716498  0.88142555     0.15000
H458        H  0.17672696  0.96055231  0.90888450     0.15000
H459        H  0.31740757  0.59839978  0.20198359     0.15000
H460        H  0.24534902  0.62037308  0.21803193     0.15000
H461        H  0.36865514  0.91976554  0.02388463     0.13300
H462        H  0.38379931  0.46446610  0.12830002     0.13300
H463        H  0.11120030  0.99241682  0.13046223     0.13300
H464        H  0.12465647  0.53123089  0.19720081     0.13300
H465        H  0.24108923  0.97650259  0.05945858     0.26500
H466        H  0.25166041  0.50566854  0.15501737     0.26500
O467        O  0.08227749  0.72386249  0.84908830    -0.74900
O468        O  0.11640792  0.74729218  0.92317574    -0.53800
C469        C  0.11442668  0.73280872  0.87142024     0.78800
O470        O  0.42260173  0.83607111  0.93906123    -0.59500
O471        O  0.38758469  0.78508960  0.96887351    -0.52600
C472        C  0.39113974  0.81949380  0.94701054     0.70800
O473        O  0.04262700  0.86573077  0.96766244    -0.74100
O474        O  0.09351078  0.82460430  0.98549877    -0.54700
C475        C  0.07762097  0.85857117  0.97843649     0.76800
O476        O  0.44270393  0.71668271  0.83982552    -0.59200
O477        O  0.39863249  0.71633469  0.91923013    -0.52400
C478        C  0.40745580  0.71531303  0.86292367     0.73400
Zr479      Zr  0.01025636  0.72645825  0.88035945     2.54700
O480        O  0.51310373  0.75167462  0.77531344    -0.79800
O481        O  0.52183217  0.65889137  0.83335166    -0.93200
Zr482      Zr  0.98870686  0.82644098  0.96400117     2.64700
O483        O  0.99110046  0.85640094  0.86295333    -0.98200
O484        O  0.96794011  0.88750689  0.00874562    -0.80200
O485        O  0.03542770  0.78259858  0.91983182    -0.83600
O486        O  0.46513657  0.76702128  0.91933806    -2.18300
O487        O  0.46018481  0.63632943  0.06230872    -0.67000
O488        O  0.40882115  0.67258821  0.03161886    -0.51500
C489        C  0.42477229  0.64175047  0.05466909     0.71800
O490        O  0.06196061  0.77418279  0.16469323    -0.59900
O491        O  0.10594573  0.77855570  0.08568663    -0.51900
C492        C  0.09725053  0.77668590  0.14214089     0.73600
O493        O  0.42053538  0.77247820  0.15638454    -0.71300
O494        O  0.38663888  0.74899890  0.08212920    -0.50000
C495        C  0.38846087  0.76364428  0.13386749     0.75000
O496        O  0.07008258  0.67657712  0.10394884    -0.66600
O497        O  0.11269478  0.71068865  0.04819575    -0.53800
C498        C  0.10397574  0.68596437  0.09039866     0.73400
Zr499      Zr  0.01477298  0.67538045  0.04585429     2.77500
O500        O  0.01335122  0.62165038  0.11988250    -0.97400
O501        O  0.04594071  0.62244385  0.98973502    -0.78200
Zr502      Zr  0.99231681  0.77572098  0.12871546     2.70100
O503        O  0.98463291  0.75868217  0.23495882    -0.79400
O504        O  0.99095928  0.84176092  0.16235102    -0.98500
Zr505      Zr  0.07081102  0.76066336  0.00409512     2.21500
Zr506      Zr  0.43265251  0.73476986  0.00165481     2.11100
O507        O  0.46852295  0.71339414  0.08545494    -2.47200
O508        O  0.03783191  0.73023211  0.08748319    -0.79200
O509        O  0.47809650  0.68900990  0.95824651    -0.71400
O510        O  0.02548738  0.80651262  0.04702842    -2.32400
O511        O  0.04834249  0.70435850  0.96231703    -2.28600
O512        O  0.45508614  0.79072711  0.04360590    -0.73200
H513        H  0.44818033  0.77613941  0.88856751     0.78800
H514        H  0.03730656  0.82764304  0.06419996     0.79900
H515        H  0.45318542  0.70040190  0.11639544     0.82100
H516        H  0.06926077  0.68719469  0.94880086     0.79700
H517        H  0.97687953  0.88518020  0.05038714     0.42800
H518        H  0.46314235  0.82787230  0.20580525     0.41700
H519        H  0.00591103  0.77065347  0.25295217     0.41400
H520        H  0.54512696  0.60270595  0.10419392     0.39400
H521        H  0.53231701  0.60983114  0.95898679     0.42500
H522        H  0.01457838  0.64552319  0.86262795     0.37300
H523        H  0.99705265  0.78637703  0.79157398     0.43400
H524        H  0.51405353  0.85340494  0.84630100     0.39800
H525        H  0.01597128  0.63338801  0.15935915     0.44700
H526        H  0.54544020  0.64795905  0.85096209     0.43400
H527        H  0.01844916  0.85832076  0.85204227     0.43600
H528        H  0.99835751  0.83929313  0.20485765     0.43900
C529        C  0.34659701  0.57332512  0.06705099    -0.13000
C530        C  0.35565985  0.55182750  0.11986044     0.09200
C531        C  0.38804705  0.55896387  0.14995526    -0.13000
C532        C  0.41106649  0.58800724  0.12763312    -0.13000
C533        C  0.40127665  0.61042012  0.07592084     0.09200
C534        C  0.36911620  0.60274907  0.04546154    -0.13000
H535        H  0.32116535  0.56816928  0.04401763     0.13200
H536        H  0.39477695  0.54293164  0.19121426     0.13200
H537        H  0.43582585  0.59384361  0.15186168     0.13200
H538        H  0.36139592  0.61954392  0.00535251     0.13200
C539        C  0.08792177  0.92951340  0.97486440    -0.13000
C540        C  0.10002508  0.89136314  0.99101185     0.09200
C541        C  0.13138950  0.88476569  0.02696201    -0.13000
C542        C  0.15094334  0.91541973  0.04493997    -0.13000
C543        C  0.14003775  0.95320847  0.02645875     0.09200
C544        C  0.10825030  0.96039405  0.99191034    -0.13000
H545        H  0.06322731  0.93535332  0.94840552     0.13200
H546        H  0.14071162  0.85588398  0.04186730     0.13200
H547        H  0.17594416  0.90959157  0.07080050     0.13200
H548        H  0.10015153  0.98949817  0.97649126     0.13200
C549        C  0.33475439  0.90839353  0.90538904    -0.13000
C550        C  0.30806458  0.90802390  0.95414403     0.09200
C551        C  0.30157317  0.87357079  0.98698647    -0.13000
C552        C  0.32587283  0.84124666  0.97768529    -0.13000
C553        C  0.35682323  0.84363723  0.93584219     0.09200
C554        C  0.35906851  0.87597263  0.89591777    -0.14800
H555        H  0.33965845  0.93489436  0.87956847     0.13200
H556        H  0.28091248  0.87321493  0.02486829     0.13200
H557        H  0.32359838  0.81663774  0.00892562     0.13200
H558        H  0.38246982  0.87796528  0.86259079     0.13200
C559        C  0.14578010  0.61501677  0.20116034    -0.13000
C560        C  0.17922322  0.60398916  0.16879694     0.09200
C561        C  0.19210027  0.62674341  0.11878722    -0.13000
C562        C  0.16940329  0.65759142  0.09698468    -0.13000
C563        C  0.13348247  0.66530111  0.12456407     0.09200
C564        C  0.12301928  0.64573401  0.17921747    -0.13000
H565        H  0.13570755  0.59781008  0.23985135     0.13200
H566        H  0.21797919  0.61825932  0.09316285     0.13200
H567        H  0.17804969  0.67229454  0.05497457     0.13200
H568        H  0.09546161  0.65143202  0.20151587     0.13200
C569        C  0.31649814  0.76823329  0.18357734    -0.12900
C570        C  0.35047955  0.76943150  0.16623244    -0.14500
C571        C  0.16513749  0.76993785  0.19414921    -0.12900
C572        C  0.13178252  0.77478507  0.17858910    -0.14500
C573        C  0.23559507  0.86464250  0.32524113    -0.12900
C574        C  0.23717152  0.83094510  0.30827800    -0.14500
C575        C  0.24864805  0.64499161  0.33700328    -0.12900
C576        C  0.24559934  0.67866081  0.31632192    -0.14500
C577        C  0.33258465  0.84748474  0.37193677    -0.13000
C578        C  0.33074529  0.84281739  0.43516697     0.09200
C579        C  0.35212288  0.81320722  0.46369360    -0.13000
C580        C  0.37844990  0.79099333  0.42917658    -0.13000
C581        C  0.38398472  0.79954350  0.36691540     0.09200
C582        C  0.35942192  0.82595246  0.33765151    -0.13000
H583        H  0.31644992  0.87089193  0.34985884     0.13200
H584        H  0.35115250  0.80988123  0.51253130     0.13200
H585        H  0.39777086  0.77066417  0.45190739     0.13200
H586        H  0.36385558  0.83289272  0.28983473     0.13200
C587        C  0.11986205  0.66016437  0.50824273    -0.13000
C588        C  0.15885566  0.65331481  0.49494458     0.09200
C589        C  0.17529124  0.66980169  0.44206647    -0.13000
C590        C  0.15251950  0.68580608  0.39768259    -0.13000
C591        C  0.11330450  0.69045413  0.40874590     0.09200
C592        C  0.09739979  0.68018839  0.46612120    -0.13000
H593        H  0.10657148  0.64801783  0.54922927     0.13200
H594        H  0.20537245  0.66605710  0.43192471     0.13200
H595        H  0.16547490  0.69448916  0.35440776     0.13200
H596        H  0.06768235  0.68644264  0.47774669     0.13200
C597        C  0.09285138  0.88674920  0.49060285    -0.13000
C598        C  0.11043976  0.91661824  0.45774325     0.09200
C599        C  0.10091194  0.92498453  0.39764480    -0.13000
C600        C  0.07646922  0.90176339  0.36931445    -0.13000
C601        C  0.06046313  0.87060844  0.40135100     0.09200
C602        C  0.06749724  0.86439113  0.46292864    -0.13000
H603        H  0.09996211  0.87971224  0.53680953     0.13200
H604        H  0.11465379  0.94759777  0.37127611     0.13200
H605        H  0.07226950  0.90630184  0.32147319     0.13200
H606        H  0.05611522  0.83987481  0.48791661     0.13200
C607        C  0.40087954  0.61798151  0.47547244    -0.13000
C608        C  0.39033463  0.58600149  0.44502411     0.09200
C609        C  0.40912250  0.57629106  0.38970433    -0.13000
C610        C  0.43662816  0.59980853  0.36332565    -0.13000
C611        C  0.44588308  0.63264328  0.39280643     0.09200
C612        C  0.42873565  0.64101806  0.44966920    -0.13000
H613        H  0.38690296  0.62563772  0.51837041     0.13200
H614        H  0.40106724  0.55176068  0.36546130     0.13200
H615        H  0.44938121  0.59348413  0.31905336     0.13200
H616        H  0.43566508  0.66654158  0.47254712     0.13200
C617        C  0.33926558  0.72148742  0.81331089    -0.12900
C618        C  0.37285387  0.71585686  0.82711622    -0.14500
C619        C  0.15249084  0.72710445  0.83951972    -0.12900
C620        C  0.18684533  0.72849524  0.82482428    -0.14500
C621        C  0.26078538  0.81617197  0.69569962    -0.12900
C622        C  0.25815237  0.84981470  0.67565099    -0.14500
C623        C  0.26326521  0.63154932  0.68971716    -0.12900
C624        C  0.26253370  0.66522828  0.70505252    -0.14500
C625        C  0.76631043  0.27808023  0.73481643     0.86900
C626        C  0.80128393  0.27135104  0.77218320    -0.53400
C627        C  0.80458969  0.23644567  0.80204579     0.09800
C628        C  0.76841438  0.21188471  0.79573916     0.20700
C629        C  0.76709899  0.24150908  0.69463365    -0.54100
C630        C  0.76816255  0.20647839  0.72751725     0.09900
C631        C  0.73210533  0.27305051  0.77870280    -0.53600
C632        C  0.73080929  0.23815639  0.80846892     0.10400
H633        H  0.82406064  0.29120801  0.76945423     0.15000
H634        H  0.76931150  0.18425147  0.82263077     0.00700
H635        H  0.76641912  0.24331484  0.64571615     0.15300
H636        H  0.70783921  0.29375836  0.77927999     0.15100
O637        O  0.65542041  0.08655089  0.51646726    -0.74900
O638        O  0.71030334  0.11811755  0.51141595    -0.53800
C639        C  0.67421880  0.11692156  0.50847171     0.78800
O640        O  0.76520186  0.42201306  0.67399322    -0.59500
O641        O  0.73819197  0.38694833  0.60412184    -0.52600
C642        C  0.75422639  0.38955510  0.65404275     0.70800
O643        O  0.75868216  0.06505078  0.67443623    -0.74100
O644        O  0.76961461  0.10608436  0.59303244    -0.54700
C645        C  0.76519280  0.09919360  0.64979803     0.76800
O646        O  0.64119701  0.47277296  0.49140469    -0.59200
O647        O  0.66951579  0.41500138  0.51823319    -0.52400
C648        C  0.64207433  0.43564780  0.49597883     0.73400
Zr649      Zr  0.67950197  0.52184527  0.53205800     2.54700
O650        O  0.64839562  0.52143583  0.63274458    -0.79800
O651        O  0.61496976  0.54499303  0.51074341    -0.93200
Zr652      Zr  0.76261362  0.49389787  0.64299555     2.64700
O653        O  0.72034552  0.49271494  0.73339579    -0.98200
O654        O  0.81494581  0.49099050  0.71055277    -0.80200
O655        O  0.71703029  0.04351388  0.58331348    -0.83600
O656        O  0.70973471  0.47215135  0.59187992    -2.18300
O657        O  0.74157480  0.43279925  0.34868494    -0.67000
O658        O  0.72855269  0.39192236  0.42951887    -0.51500
C659        C  0.73488288  0.39847348  0.37281798     0.71800
O660        O  0.86102057  0.03118204  0.47094284    -0.59900
O661        O  0.82553766  0.08687147  0.48718615    -0.51900
C662        C  0.85663062  0.06802690  0.47136411     0.73600
O663        O  0.83545358  0.40366963  0.47826059    -0.71300
O664        O  0.77883658  0.37572235  0.49625469    -0.50000
C665        C  0.81367898  0.37522606  0.47812790     0.75000
O666        O  0.74430151  0.07294621  0.34440182    -0.66600
O667        O  0.76125028  0.11068640  0.41970597    -0.53800
C668        C  0.75214906  0.10645588  0.36533664     0.73400
Zr669      Zr  0.74092934  0.00173058  0.38274981     2.77500
O670        O  0.78976933  0.00065207  0.30131007    -0.97400
O671        O  0.68898060  0.00596020  0.31454478    -0.78200
Zr672      Zr  0.83182403  0.47209964  0.49952292     2.70100
O673        O  0.88772417  0.45046771  0.43851920    -0.79400
O674        O  0.87067806  0.45642717  0.58545471    -0.98500
Zr675      Zr  0.76080285  0.06835134  0.50802108     2.21500
Zr676      Zr  0.73571598  0.42947018  0.51664917     2.11100
O677        O  0.78092483  0.45418180  0.44355471    -2.47200
O678        O  0.79066619  0.02479928  0.43768857    -0.79200
O679        O  0.70369360  0.47817795  0.45760098    -0.71400
O680        O  0.79557407  0.02278388  0.57007140    -2.32400
O681        O  0.71096661  0.04533363  0.45288670    -2.28600
O682        O  0.78727537  0.44785576  0.57217129    -0.73200
H683        H  0.69201310  0.45921522  0.61926433     0.78800
H684        H  0.81495731  0.03528681  0.58990827     0.79900
H685        H  0.79115550  0.43529479  0.41544989     0.82100
H686        H  0.69748777  0.06541506  0.43011433     0.79700
H687        H  0.82010700  0.00409190  0.70029607     0.42800
H688        H  0.87385056  0.42790342  0.58653287     0.41700
H689        H  0.89531185  0.96030306  0.44125055     0.41400
H690        H  0.81957437  0.49159121  0.31688295     0.39400
H691        H  0.70041068  0.49047296  0.28811306     0.42500
H692        H  0.58787619  0.02318542  0.52241998     0.37300
H693        H  0.61516390  0.03310656  0.62631736     0.43400
H694        H  0.70280342  0.47220725  0.72688574     0.39800
H695        H  0.77545828  0.99827890  0.26460104     0.44700
H696        H  0.60794810  0.56548824  0.53979413     0.43400
H697        H  0.73647763  0.48187999  0.76577803     0.43600
H698        H  0.89605618  0.46521106  0.57232471     0.43900
N699        N  0.49253228  0.30277008  0.36232198    -0.36200
N700        N  0.56665491  0.27162236  0.32934348    -0.56800
N701        N  0.53550392  0.16476665  0.33944379    -0.36200
N702        N  0.95719332  0.23119548  0.33926178    -0.56800
C703        C  0.51291221  0.33442614  0.36849019     0.27300
C704        C  0.94717724  0.31464114  0.36063808     0.27300
C705        C  0.55943354  0.19040264  0.31319488     0.27300
C706        C  0.00790986  0.16453953  0.37424567     0.27300
C707        C  0.57792229  0.30466523  0.35046776     0.36000
C708        C  0.59614766  0.24558657  0.33322523     0.36000
C709        C  0.92552391  0.25255121  0.32715697     0.36000
C710        C  0.94925351  0.19423424  0.33283448     0.36000
C711        C  0.48849489  0.36620385  0.37928745    -0.21500
C712        C  0.94119846  0.34834774  0.39263003    -0.21500
C713        C  0.54557281  0.20493512  0.25941204    -0.21500
C714        C  0.02783998  0.13591771  0.40631373    -0.21500
C715        C  0.61631497  0.30125374  0.36056908    -0.22600
C716        C  0.62775757  0.26358321  0.35075739    -0.22600
C717        C  0.89754029  0.22932013  0.31037990    -0.22600
C718        C  0.91270335  0.19219837  0.31368153    -0.22600
C719        C  0.55284352  0.33502413  0.37062694    -0.17900
C720        C  0.91848808  0.28957946  0.34865680    -0.17900
C721        C  0.96928429  0.16354334  0.36190137    -0.17900
C722        C  0.58993133  0.20593609  0.34085088    -0.17900
H723        H  0.49594510  0.39528892  0.38744542     0.15000
H724        H  0.91464654  0.36080500  0.41151800     0.15000
H725        H  0.55794093  0.22642035  0.22937118     0.15000
H726        H  0.01797088  0.10844412  0.42329355     0.15000
H727        H  0.63338931  0.32237461  0.37917495     0.13300
H728        H  0.65535267  0.25083009  0.36078640     0.13300
H729        H  0.86821483  0.23788904  0.30274834     0.13300
H730        H  0.89733222  0.16644808  0.30921148     0.13300
H731        H  0.50268858  0.27416530  0.36056984     0.26500
H732        H  0.53666708  0.15205084  0.38269515     0.26500
C733        C  0.74511110  0.21867655  0.28067592     0.86900
C734        C  0.78014329  0.22486173  0.23890281    -0.53400
C735        C  0.78175486  0.26021043  0.21050986     0.09800
C736        C  0.74367642  0.28621424  0.22268017     0.20700
C737        C  0.74293089  0.25473997  0.32257293    -0.54100
C738        C  0.74203887  0.29051949  0.29142245     0.09900
C739        C  0.71090935  0.22616941  0.24117666    -0.53600
C740        C  0.70777502  0.26181166  0.21314928     0.10400
H741        H  0.80433599  0.20407177  0.23786697     0.15000
H742        H  0.74314712  0.31433551  0.19710806     0.00700
H743        H  0.74190527  0.25203900  0.37154887     0.15300
H744        H  0.68842968  0.20612901  0.24083599     0.15100
N745        N  0.73703574  0.48246905  0.02471950    -0.36200
N746        N  0.80106843  0.49121462  0.08927022    -0.56800
N747        N  0.75842391  0.03120755  0.15385282    -0.36200
N748        N  0.69078911  0.52498354  0.10804161    -0.56800
C749        C  0.76335775  0.46736614  0.98534235     0.27300
C750        C  0.70432936  0.48709675  0.99664501     0.27300
C751        C  0.79373099  0.04389897  0.15736733     0.27300
C752        C  0.73421208  0.05935965  0.17600407     0.27300
C753        C  0.81497722  0.46178987  0.05560913     0.36000
C754        C  0.82736606  0.99545108  0.09315935     0.36000
C755        C  0.66533333  0.50197622  0.08745603     0.36000
C756        C  0.67593973  0.03580328  0.13717837     0.36000
C757        C  0.74789758  0.46364478  0.92988549    -0.21500
C758        C  0.71033761  0.47643995  0.93692546    -0.21500
C759        C  0.79197577  0.07827164  0.18750231    -0.21500
C760        C  0.75438937  0.08792985  0.19937784    -0.21500
C761        C  0.84974952  0.44787371  0.07596530    -0.22600
C762        C  0.85874832  0.97083173  0.08141297    -0.22600
C763        C  0.63671804  0.49600027  0.13139398    -0.22600
C764        C  0.63824754  0.02714093  0.14711075    -0.22600
C765        C  0.79800171  0.45056040  0.00333290    -0.17900
C766        C  0.66949489  0.48617116  0.02974518    -0.17900
C767        C  0.69470994  0.06258744  0.16904032    -0.17900
C768        C  0.82707124  0.02801394  0.12808687    -0.17900
H769        H  0.76135035  0.45020526  0.89041079     0.15000
H770        H  0.68892582  0.47370901  0.90442133     0.15000
H771        H  0.81524651  0.09580300  0.19658972     0.15000
H772        H  0.74303016  0.11453441  0.21859024     0.15000
H773        H  0.86872827  0.42562073  0.05642426     0.13300
H774        H  0.88563814  0.97021121  0.10271447     0.13300
H775        H  0.61204499  0.47930503  0.12788912     0.13300
H776        H  0.61924291  0.03505344  0.18495139     0.13300
H777        H  0.73861738  0.47970754  0.07143717     0.26500
H778        H  0.75105708  0.00610765  0.13419179     0.26500
O779        O  0.58725489  0.22188486  0.85163321    -0.74900
O780        O  0.62186159  0.24492499  0.92563606    -0.53800
C781        C  0.61958269  0.23023603  0.87410335     0.78800
O782        O  0.93000403  0.34385331  0.95067309    -0.59500
O783        O  0.89376807  0.29355922  0.97894094    -0.52600
C784        C  0.89812406  0.32826002  0.95861549     0.70800
O785        O  0.55167967  0.36618137  0.95580933    -0.74100
O786        O  0.60169019  0.32478596  0.97708492    -0.54700
C787        C  0.58664591  0.35875228  0.96634373     0.76800
O788        O  0.94673277  0.22054843  0.84833240    -0.59200
O789        O  0.90259538  0.22341763  0.92754202    -0.52400
C790        C  0.91147075  0.22016288  0.87151334     0.73400
Zr791      Zr  0.51500469  0.22482476  0.88174498     2.54700
O792        O  0.01612383  0.26677947  0.79026214    -0.79800
O793        O  0.02440470  0.16985520  0.82481968    -0.93200
Zr794      Zr  0.49664300  0.32865310  0.95329785     2.64700
O795        O  0.50785029  0.34911442  0.84794758    -0.98200
O796        O  0.47739486  0.39487831  0.97785891    -0.80200
O797        O  0.54207767  0.28144516  0.91612254    -0.83600
O798        O  0.97011352  0.27300874  0.92746655    -2.18300
O799        O  0.96378508  0.14088091  0.07206377    -0.67000
O800        O  0.91357367  0.17862748  0.04041458    -0.51500
C801        C  0.92852281  0.14712134  0.06325054     0.71800
O802        O  0.56583925  0.28393077  0.16164275    -0.59900
O803        O  0.61108790  0.28304303  0.08401728    -0.51900
C804        C  0.60158675  0.28407742  0.14016163     0.73600
O805        O  0.92562149  0.27693218  0.16424957    -0.71300
O806        O  0.89122332  0.25496509  0.08938588    -0.50000
C807        C  0.89325990  0.26878643  0.14158182     0.75000
O808        O  0.56884266  0.18619988  0.11672863    -0.66600
O809        O  0.61401535  0.21242363  0.05579044    -0.53800
C810        C  0.60358984  0.19047088  0.10093545     0.73400
Zr811      Zr  0.51743248  0.18123203  0.05138227     2.77500
O812        O  0.51743893  0.12590776  0.12255475    -0.97400
O813        O  0.54960358  0.12739071  0.99853248    -0.78200
Zr814      Zr  0.49637938  0.28485673  0.12410340     2.70100
O815        O  0.49260847  0.27834450  0.23336847    -0.79400
O816        O  0.48918999  0.35379693  0.14132395    -0.98500
Zr817      Zr  0.57604959  0.26294210  0.00374862     2.21500
Zr818      Zr  0.93747273  0.24094247  0.00972065     2.11100
O819        O  0.97324620  0.21833525  0.09312741    -2.47200
O820        O  0.54117459  0.23700140  0.08867165    -0.79200
O821        O  0.98219543  0.19463297  0.96580237    -0.71400
O822        O  0.53140067  0.31169365  0.04022668    -2.32400
O823        O  0.55255561  0.20587938  0.96607709    -2.28600
O824        O  0.96099893  0.29619522  0.05227895    -0.73200
H825        H  0.95303017  0.28241555  0.89700110     0.78800
H826        H  0.54375196  0.33321829  0.05523669     0.79900
H827        H  0.95768490  0.20554744  0.12409643     0.82100
H828        H  0.57326496  0.18815154  0.95447775     0.79700
H829        H  0.46626662  0.39297594  0.01972608     0.42800
H830        H  0.00601936  0.35056866  0.16987505     0.41700
H831        H  0.50749595  0.29975716  0.24565940     0.41400
H832        H  0.04756083  0.10758639  0.11523175     0.39400
H833        H  0.03247470  0.10122755  0.99606197     0.42500
H834        H  0.49532110  0.14820651  0.86120316     0.37300
H835        H  0.49381896  0.25191203  0.76427856     0.43400
H836        H  0.00139048  0.38939502  0.88288790     0.39800
H837        H  0.51371399  0.13703077  0.16300886     0.44700
H838        H  0.01413886  0.14909920  0.85163492     0.43400
H839        H  0.50085574  0.37712811  0.84690595     0.43600
H840        H  0.51398942  0.36044447  0.15560525     0.43900
C841        C  0.84831631  0.08132669  0.06147008    -0.13000
C842        C  0.85608286  0.05545871  0.10993603     0.09200
C843        C  0.88825151  0.05911228  0.14293624    -0.13000
C844        C  0.91234644  0.08892728  0.12747414    -0.13000
C845        C  0.90377654  0.11556739  0.07989046     0.09200
C846        C  0.87173769  0.11134566  0.04692185    -0.13000
H847        H  0.82324030  0.07886973  0.03608641     0.13200
H848        H  0.89414965  0.03958154  0.18093453     0.13200
H849        H  0.93707995  0.09176365  0.15346418     0.13200
H850        H  0.86489628  0.13115909  0.00967160     0.13200
C851        C  0.59504786  0.42985051  0.96291905    -0.13000
C852        C  0.60969880  0.39182501  0.97453544     0.09200
C853        C  0.64342504  0.38581378  0.00489842    -0.13000
C854        C  0.66119903  0.41689400  0.02556680    -0.13000
C855        C  0.64622823  0.45462281  0.01500165     0.09200
C856        C  0.61346419  0.46121343  0.98278598    -0.13000
H857        H  0.56892478  0.43529041  0.93987475     0.13200
H858        H  0.65529670  0.35703159  0.01516251     0.13200
H859        H  0.68721527  0.41166051  0.04908137     0.13200
H860        H  0.60243290  0.49035662  0.97288530     0.13200
C861        C  0.84393173  0.42073191  0.92867851    -0.13000
C862        C  0.81446592  0.41670209  0.97242088     0.09200
C863        C  0.80659866  0.38020662  0.99743769    -0.13000
C864        C  0.83158752  0.34872934  0.98559520    -0.13000
C865        C  0.86455209  0.35397118  0.94901564     0.09200
C866        C  0.86880515  0.38921228  0.91643600    -0.14800
H867        H  0.84996576  0.44889730  0.90906678     0.13200
H868        H  0.78367651  0.37707383  0.03137526     0.13200
H869        H  0.82762114  0.32189601  0.01103807     0.13200
H870        H  0.89375423  0.39367337  0.88706433     0.13200
C871        C  0.64232930  0.11039856  0.20075304    -0.13000
C872        C  0.67661012  0.10191800  0.16851831     0.09200
C873        C  0.69064208  0.12894263  0.12529809    -0.13000
C874        C  0.66859680  0.16155297  0.10896390    -0.13000
C875        C  0.63171893  0.16674581  0.13411680     0.09200
C876        C  0.61975227  0.14262181  0.18328876    -0.13000
H877        H  0.63161572  0.09051021  0.23545969     0.13200
H878        H  0.71721197  0.12294627  0.09992024     0.13200
H879        H  0.67875046  0.17999217  0.07180781     0.13200
H880        H  0.59154844  0.14633039  0.20431923     0.13200
C881        C  0.82079127  0.27234998  0.18968476    -0.12900
C882        C  0.85507607  0.27415103  0.17394385    -0.14500
C883        C  0.66886527  0.27628370  0.19413397    -0.12900
C884        C  0.63570861  0.28228837  0.17780731    -0.14500
C885        C  0.73660977  0.36289799  0.33706935    -0.12900
C886        C  0.73902954  0.32970615  0.31789800    -0.14500
C887        C  0.74932892  0.14361972  0.32892703    -0.12900
C888        C  0.74689802  0.17767377  0.30921120    -0.14500
C889        C  0.83067262  0.34792162  0.38123157    -0.13000
C890        C  0.82841260  0.34261289  0.44433648     0.09200
C891        C  0.84833288  0.31180224  0.47247312    -0.13000
C892        C  0.87434139  0.28930776  0.43784348    -0.13000
C893        C  0.88072915  0.29872552  0.37601335     0.09200
C894        C  0.85693268  0.32589967  0.34685054    -0.13000
H895        H  0.81564240  0.37222312  0.35949784     0.13200
H896        H  0.84686677  0.30791227  0.52124615     0.13200
H897        H  0.89303641  0.26827466  0.46042630     0.13200
H898        H  0.86200769  0.33338349  0.29933431     0.13200
C899        C  0.61486524  0.15678604  0.48992887    -0.13000
C900        C  0.65409990  0.14981460  0.47945811     0.09200
C901        C  0.67151604  0.16371462  0.42564301    -0.13000
C902        C  0.64985933  0.17783174  0.37870087    -0.13000
C903        C  0.61073161  0.18423398  0.38799849     0.09200
C904        C  0.59353771  0.17574261  0.44525420    -0.13000
H905        H  0.60071010  0.14619726  0.53126928     0.13200
H906        H  0.70168746  0.15984906  0.41774089     0.13200
H907        H  0.66376418  0.18507660  0.33553421     0.13200
H908        H  0.56374561  0.18299721  0.45501435     0.13200
C909        C  0.59939987  0.38077451  0.49716762    -0.13000
C910        C  0.61202442  0.41492296  0.46913232     0.09200
C911        C  0.60099655  0.42517293  0.41028668    -0.13000
C912        C  0.57997077  0.40024766  0.37851978    -0.13000
C913        C  0.56893441  0.36530259  0.40588856     0.09200
C914        C  0.57764146  0.35646412  0.46609462    -0.13000
H915        H  0.60782615  0.37206777  0.54216005     0.13200
H916        H  0.61104893  0.45099665  0.38729636     0.13200
H917        H  0.57386798  0.40729219  0.33190194     0.13200
H918        H  0.56957585  0.32943685  0.48767538     0.13200
C919        C  0.89335904  0.12707606  0.47025733    -0.13000
C920        C  0.88923121  0.09004041  0.44957518     0.09200
C921        C  0.91499614  0.07516935  0.40445367    -0.13000
C922        C  0.94287021  0.09810990  0.37749889    -0.13000
C923        C  0.94562061  0.13574824  0.39640070     0.09200
C924        C  0.92166272  0.14955249  0.44437925    -0.13000
H925        H  0.87409058  0.13899632  0.50523939     0.13200
H926        H  0.91222533  0.04662449  0.38768490     0.13200
H927        H  0.96099858  0.08726954  0.34030789     0.13200
H928        H  0.92355088  0.17871022  0.45931264     0.13200
C929        C  0.84360317  0.22284652  0.82053903    -0.12900
C930        C  0.87704120  0.21868629  0.83565527    -0.14500
C931        C  0.65754406  0.22403361  0.84228104    -0.12900
C932        C  0.69184840  0.22576532  0.82767736    -0.14500
C933        C  0.76439994  0.31814263  0.70512116    -0.12900
C934        C  0.76099952  0.35203949  0.68653037    -0.14500
C935        C  0.76675308  0.13410713  0.68535944    -0.12900
C936        C  0.76768019  0.16721653  0.70323750    -0.14500
C937        C  0.76168255  0.77894981  0.73223982     0.86900
C938        C  0.79674270  0.77228517  0.76945246    -0.53400
C939        C  0.80011344  0.73730184  0.79914837     0.09800
C940        C  0.76415600  0.71262444  0.79282900     0.20700
C941        C  0.76268169  0.74232794  0.69187267    -0.54100
C942        C  0.76413155  0.70719325  0.72463424     0.09900
C943        C  0.72769064  0.77372334  0.77628175    -0.53600
C944        C  0.72658003  0.73879200  0.80574723     0.10400
H945        H  0.81951624  0.79214410  0.76659991     0.15000
H946        H  0.76522701  0.68502176  0.81980180     0.00700
H947        H  0.76244128  0.74417549  0.64291819     0.15300
H948        H  0.70335981  0.79436450  0.77717946     0.15100
O949        O  0.67419743  0.59224511  0.52466546    -0.74900
O950        O  0.73156173  0.61952165  0.51881154    -0.53800
C951        C  0.69532605  0.62128947  0.52008972     0.78800
O952        O  0.75652915  0.92362283  0.67335450    -0.59500
O953        O  0.73149449  0.88746559  0.60291185    -0.52600
C954        C  0.74697311  0.89066331  0.65310728     0.70800
O955        O  0.76238196  0.56460359  0.67354435    -0.74100
O956        O  0.78555467  0.60260844  0.59540252    -0.54700
C957        C  0.77273586  0.59788164  0.64995039     0.76800
O958        O  0.63404375  0.96771553  0.48819543    -0.59200
O959        O  0.66516771  0.91086826  0.51184749    -0.52400
C960        C  0.63675476  0.93081120  0.49133234     0.73400
Zr961      Zr  0.66913502  0.01795239  0.52844450     2.54700
O962        O  0.63713940  0.01423336  0.62843693    -0.79800
O963        O  0.60547614  0.04130478  0.50205864    -0.93200
Zr964      Zr  0.75107729  0.99562105  0.64241849     2.64700
O965        O  0.70358324  0.99826482  0.72603604    -0.98200
O966        O  0.79885868  0.98925268  0.71785099    -0.80200
O967        O  0.73126773  0.54279525  0.58333250    -0.83600
O968        O  0.70047686  0.97016661  0.59016848    -2.18300
O969        O  0.73689293  0.93244892  0.34635736    -0.67000
O970        O  0.72560874  0.89118451  0.42726106    -0.51500
C971        C  0.73163635  0.89785198  0.37048632     0.71800
O972        O  0.87370005  0.52266014  0.46747759    -0.59900
O973        O  0.84265815  0.58027752  0.48732926    -0.51900
C974        C  0.87218707  0.55954825  0.46948394     0.73600
O975        O  0.83257462  0.90780374  0.50021124    -0.71300
O976        O  0.77668740  0.87799769  0.50296827    -0.50000
C977        C  0.81276407  0.87802732  0.49811240     0.75000
O978        O  0.75254217  0.57313146  0.34711467    -0.66600
O979        O  0.77457153  0.60904673  0.42072490    -0.53800
C980        C  0.76213831  0.60596118  0.36793016     0.73400
Zr981      Zr  0.74891777  0.50214070  0.38378511     2.77500
O982        O  0.79496494  0.49781765  0.29847516    -0.97400
O983        O  0.69537937  0.51024375  0.31898280    -0.78200
Zr984      Zr  0.82282764  0.97754219  0.50022167     2.70100
O985        O  0.87070262  0.95671241  0.42346400    -0.79400
O986        O  0.87131549  0.96802918  0.57443906    -0.98500
Zr987      Zr  0.77645984  0.56588445  0.50875820     2.21500
Zr988      Zr  0.72985890  0.92936888  0.51490505     2.11100
O989        O  0.77518216  0.95445648  0.44225930    -2.47200
O990        O  0.80180348  0.52109508  0.43701015    -0.79200
O991        O  0.70237091  0.97909958  0.46133955    -0.71400
O992        O  0.80890566  0.51844711  0.57054621    -2.32400
O993        O  0.72335361  0.54640336  0.45678429    -2.28600
O994        O  0.77920054  0.95101359  0.57217445    -0.73200
H995        H  0.68331969  0.95611598  0.61700599     0.78800
H996        H  0.82949011  0.52934756  0.58992614     0.79900
H997        H  0.78719050  0.93486866  0.41689861     0.82100
H998        H  0.71047795  0.56770973  0.43578270     0.79700
H999        H  0.82949905  0.51387401  0.69892616     0.42800
H1000       H  0.89470816  0.97720156  0.55347099     0.41700
H1001       H  0.88138524  0.45749233  0.39637418     0.41400
H1002       H  0.80358692  0.97525084  0.30646597     0.39400
H1003       H  0.66760877  0.99459057  0.33827658     0.42500
H1004       H  0.61722388  0.55868002  0.47082725     0.37300
H1005       H  0.64551544  0.54900221  0.64293704     0.43400
H1006       H  0.70217166  0.97119287  0.74124149     0.39800
H1007       H  0.78948348  0.47401897  0.27810190     0.44700
H1008       H  0.60425570  0.03683588  0.45835338     0.43400
H1009       H  0.71589822  0.01127795  0.75819252     0.43600
H1010       H  0.86460214  0.98725585  0.60558680     0.43900
N1011       N  0.48782785  0.80702590  0.33481956    -0.36200
N1012       N  0.56061993  0.76806136  0.35565462    -0.56800
N1013       N  0.53045664  0.69210748  0.36209771    -0.36200
N1014       N  0.95380104  0.72782256  0.34053842    -0.56800
C1015       C  0.50631186  0.83523646  0.35939741     0.27300
C1016       C  0.95047290  0.81321377  0.36246607     0.27300
C1017       C  0.56249172  0.68491057  0.39208134     0.27300
C1018       C  0.00830226  0.66405773  0.32646968     0.27300
C1019       C  0.57060779  0.80470466  0.34654112     0.36000
C1020       C  0.59279095  0.74651018  0.36432549     0.36000
C1021       C  0.92188683  0.74880198  0.35630180     0.36000
C1022       C  0.94398637  0.69078007  0.34051634     0.36000
C1023       C  0.48052127  0.86205443  0.38513321    -0.21500
C1024       C  0.94546637  0.85310748  0.36510114    -0.21500
C1025       C  0.56074207  0.64941586  0.42307348    -0.21500
C1026       C  0.01737842  0.68164920  0.27102049    -0.21500
C1027       C  0.60974381  0.80612570  0.34482327    -0.22600
C1028       C  0.62380948  0.76936708  0.35708513    -0.22600
C1029       C  0.89132483  0.72526154  0.36270587    -0.22600
C1030       C  0.90533348  0.68852897  0.35215406    -0.22600
C1031       C  0.54585987  0.83605636  0.36245207    -0.17900
C1032       C  0.92060110  0.78775938  0.37214075    -0.17900
C1033       C  0.97066774  0.65949610  0.34699915    -0.17900
C1034       C  0.59295794  0.70970912  0.39293185    -0.17900
H1035       H  0.48651326  0.88762408  0.40859926     0.15000
H1036       H  0.91881825  0.87001230  0.36880644     0.15000
H1037       H  0.58218439  0.63450762  0.44962193     0.15000
H1038       H  0.99932987  0.68545108  0.23306846     0.15000
H1039       H  0.62602303  0.83167041  0.34296076     0.13300
H1040       H  0.65318068  0.76164989  0.36501690     0.13300
H1041       H  0.86228742  0.73303524  0.37696075     0.13300
H1042       H  0.88955748  0.66270603  0.35782941     0.13300
H1043       H  0.49987815  0.78405851  0.31021889     0.26500
H1044       H  0.52517403  0.71476490  0.33124504     0.26500
C1045       C  0.74613892  0.71737140  0.28336912     0.86900
C1046       C  0.77915470  0.72435798  0.23803431    -0.53400
C1047       C  0.77807177  0.75918924  0.20796642     0.09800
C1048       C  0.73926772  0.78349741  0.22213809     0.20700
C1049       C  0.74373734  0.75433190  0.32321097    -0.54100
C1050       C  0.73994635  0.78939105  0.29048079     0.09900
C1051       C  0.71017765  0.72199131  0.24723851    -0.53600
C1052       C  0.70443587  0.75670957  0.21703600     0.10400
H1053       H  0.80439763  0.70491918  0.23617814     0.15000
H1054       H  0.73647073  0.81103415  0.19523498     0.00700
H1055       H  0.74496226  0.75272224  0.37205858     0.15300
H1056       H  0.68891856  0.70049434  0.25013258     0.15100
N1057       N  0.73272853  0.97867735  0.99687499    -0.36200
N1058       N  0.80029342  0.99005258  0.05447949    -0.56800
N1059       N  0.75888505  0.53483919  0.18735660    -0.36200
N1060       N  0.68931150  0.02302228  0.08315116    -0.56800
C1061       C  0.75795268  0.96283367  0.95638880     0.27300
C1062       C  0.69915259  0.98238725  0.97102054     0.27300
C1063       C  0.79339836  0.54989890  0.18385652     0.27300
C1064       C  0.73345025  0.56425540  0.20025011     0.27300
C1065       C  0.81332838  0.96073008  0.01972450     0.36000
C1066       C  0.82622193  0.49632302  0.13103356     0.36000
C1067       C  0.66118794  0.00420029  0.06031744     0.36000
C1068       C  0.67983751  0.53259019  0.16544167     0.36000
C1069       C  0.74072988  0.95718769  0.90298862    -0.21500
C1070       C  0.70329498  0.96968010  0.91224815    -0.21500
C1071       C  0.79008040  0.58821817  0.19998752    -0.21500
C1072       C  0.75213635  0.59730325  0.20993246    -0.21500
C1073       C  0.84941058  0.94777928  0.03589222    -0.22600
C1074       C  0.85736615  0.47073655  0.12290407    -0.22600
C1075       C  0.62915892  0.00616549  0.09890742    -0.22600
C1076       C  0.64548670  0.51657833  0.18063261    -0.22600
C1077       C  0.79371783  0.94744903  0.97136462    -0.17900
C1078       C  0.66471657  0.98504119  0.00522600    -0.17900
C1079       C  0.69414942  0.56358283  0.19330131    -0.17900
C1080       C  0.82683050  0.53155294  0.15866936    -0.17900
H1081       H  0.75320856  0.94315204  0.86333231     0.15000
H1082       H  0.68096810  0.96643206  0.88154082     0.15000
H1083       H  0.81233039  0.60838001  0.19992617     0.15000
H1084       H  0.73946497  0.62584179  0.21790833     0.15000
H1085       H  0.86772721  0.92536289  0.01540642     0.13300
H1086       H  0.88364361  0.47035587  0.14590544     0.13300
H1087       H  0.60201129  0.99445699  0.09230506     0.13300
H1088       H  0.62826422  0.52030352  0.22203996     0.13300
H1089       H  0.73607374  0.97795168  0.04321478     0.26500
H1090       H  0.75266107  0.50697859  0.17647925     0.26500
O1091       O  0.58335468  0.72201668  0.84646567    -0.74900
O1092       O  0.61735506  0.74411140  0.92193016    -0.53800
C1093       C  0.61539063  0.73041911  0.86964176     0.78800
O1094       O  0.92317722  0.84046172  0.94391596    -0.59500
O1095       O  0.88718660  0.78951961  0.96970069    -0.52600
C1096       C  0.89158991  0.82396219  0.94846747     0.70800
O1097       O  0.54217314  0.86151901  0.95559336    -0.74100
O1098       O  0.59270637  0.82193784  0.98111800    -0.54700
C1099       C  0.57704781  0.85525821  0.96763252     0.76800
O1100       O  0.94180426  0.72072596  0.84420309    -0.59200
O1101       O  0.89808922  0.71983007  0.92407222    -0.52400
C1102       C  0.90677564  0.71881619  0.86767422     0.73400
Zr1103     Zr  0.51138945  0.72221609  0.87675710     2.54700
O1104       O  0.01235026  0.76214687  0.78374186    -0.79800
O1105       O  0.01503784  0.66537450  0.82939821    -0.93200
Zr1106     Zr  0.48818468  0.82197093  0.96118114     2.64700
O1107       O  0.48733559  0.85493255  0.86216471    -0.98200
O1108       O  0.46891211  0.88028803  0.01513873    -0.80200
O1109       O  0.53559815  0.77864398  0.91728917    -0.83600
O1110       O  0.96458379  0.77151865  0.92345521    -2.18300
O1111       O  0.95883461  0.64135758  0.06953956    -0.67000
O1112       O  0.90755373  0.67780065  0.03895303    -0.51500
C1113       C  0.92339333  0.64704570  0.06264240     0.71800
O1114       O  0.56190794  0.77111935  0.16368173    -0.59900
O1115       O  0.60638990  0.77423492  0.08507413    -0.51900
C1116       C  0.59739503  0.77323755  0.14160159     0.73600
O1117       O  0.92028350  0.77837856  0.15921107    -0.71300
O1118       O  0.88588550  0.75508240  0.08553053    -0.50000
C1119       C  0.88801847  0.76972004  0.13709622     0.75000
O1120       O  0.56762970  0.67618197  0.10652382    -0.66600
O1121       O  0.61166464  0.70665276  0.04842714    -0.53800
C1122       C  0.60205044  0.68314717  0.09199877     0.73400
Zr1123     Zr  0.51623899  0.67071257  0.04090951     2.77500
O1124       O  0.51881814  0.61391589  0.10899405    -0.97400
O1125       O  0.55136575  0.62034022  0.98410985    -0.78200
Zr1126     Zr  0.49254712  0.76934733  0.12661652     2.70100
O1127       O  0.49124295  0.73016914  0.21929583    -0.79400
O1128       O  0.48632917  0.82989926  0.17908708    -0.98500
Zr1129     Zr  0.57138595  0.75754038  0.00180987     2.21500
Zr1130     Zr  0.93183513  0.73970445  0.00606283     2.11100
O1131       O  0.96799666  0.71908408  0.09028895    -2.47200
O1132       O  0.53813164  0.72600763  0.08250026    -0.79200
O1133       O  0.97704818  0.69380982  0.96282726    -0.71400
O1134       O  0.52503689  0.80226239  0.04485102    -2.32400
O1135       O  0.54984464  0.70111565  0.95877317    -2.28600
O1136       O  0.95450935  0.79632337  0.04631590    -0.73200
H1137       H  0.94771608  0.78059406  0.89261225     0.78800
H1138       H  0.53651796  0.82394461  0.06112918     0.79900
H1139       H  0.95275481  0.70657076  0.12183423     0.82100
H1140       H  0.57110295  0.68451736  0.94526959     0.79700
H1141       H  0.44993850  0.89435622  0.99005803     0.42800
H1142       H  0.96370469  0.85007634  0.16516906     0.41700
H1143       H  0.51570677  0.71481488  0.21775576     0.41400
H1144       H  0.03746739  0.60628256  0.11248538     0.39400
H1145       H  0.07159244  0.61919418  0.00577928     0.42500
H1146       H  0.50158446  0.64342495  0.85274690     0.37300
H1147       H  0.49974455  0.73388358  0.75097681     0.43400
H1148       H  0.98140630  0.88336846  0.86886435     0.39800
H1149       H  0.51698931  0.62429521  0.15013202     0.44700
H1150       H  0.04132287  0.66331079  0.81167487     0.43400
H1151       H  0.47441254  0.83748395  0.83661996     0.43600
H1152       H  0.50734414  0.82825531  0.20702478     0.43900
C1153       C  0.84799364  0.57533548  0.07535655    -0.13000
C1154       C  0.85507129  0.55729765  0.13182846     0.09200
C1155       C  0.88533141  0.56782406  0.16440687    -0.13000
C1156       C  0.90802662  0.59687868  0.14095069    -0.13000
C1157       C  0.89991694  0.61605847  0.08562908     0.09200
C1158       C  0.87009752  0.60487129  0.05260323    -0.13000
H1159       H  0.82425356  0.56755048  0.05021791     0.13200
H1160       H  0.89056857  0.55445971  0.20833407     0.13200
H1161       H  0.93116182  0.60529902  0.16687627     0.13200
H1162       H  0.86392685  0.61898863  0.00954527     0.13200
C1163       C  0.58840732  0.92562134  0.94819498    -0.13000
C1164       C  0.59989939  0.88894453  0.97239952     0.09200
C1165       C  0.63134248  0.88523535  0.00852876    -0.13000
C1166       C  0.65073455  0.91728219  0.02079982    -0.13000
C1167       C  0.63959860  0.95367863  0.99654978     0.09200
C1168       C  0.60856701  0.95793529  0.95969993    -0.13000
H1169       H  0.56394452  0.92925045  0.92070478     0.13200
H1170       H  0.64046650  0.85766607  0.02891160     0.13200
H1171       H  0.67511597  0.91366088  0.04855371     0.13200
H1172       H  0.60029635  0.98588749  0.93978309     0.13200
C1173       C  0.83934852  0.91366890  0.90071992    -0.13000
C1174       C  0.80860032  0.91214691  0.94262507     0.09200
C1175       C  0.79885339  0.87679594  0.97012053    -0.13000
C1176       C  0.82385574  0.84457766  0.96454067    -0.13000
C1177       C  0.85839249  0.84815507  0.93146351     0.09200
C1178       C  0.86407009  0.88138901  0.89450440    -0.14800
H1179       H  0.84678968  0.94085461  0.87900081     0.13200
H1180       H  0.77472920  0.87552402  0.00223532     0.13200
H1181       H  0.81865280  0.81902994  0.99261613     0.13200
H1182       H  0.89016587  0.88422939  0.86722918     0.13200
C1183       C  0.64342269  0.61580039  0.20943831    -0.13000
C1184       C  0.67501674  0.60068924  0.17605409     0.09200
C1185       C  0.68619975  0.61817284  0.12016353    -0.13000
C1186       C  0.66437795  0.64855143  0.09548885    -0.13000
C1187       C  0.63081497  0.66139783  0.12602289     0.09200
C1188       C  0.62138147  0.64632415  0.18452207    -0.13000
H1189       H  0.63465556  0.60256614  0.25256521     0.13200
H1190       H  0.71050574  0.60640219  0.09372462     0.13200
H1191       H  0.67181550  0.65936638  0.05018803     0.13200
H1192       H  0.59549492  0.65621867  0.20888800     0.13200
C1193       C  0.81605758  0.77305522  0.18589428    -0.12900
C1194       C  0.85011050  0.77533997  0.16963859    -0.14500
C1195       C  0.66497564  0.76788201  0.19625675    -0.12900
C1196       C  0.63180258  0.77205711  0.17900148    -0.14500
C1197       C  0.73421542  0.86229613  0.33451402    -0.12900
C1198       C  0.73690546  0.82906051  0.31542035    -0.14500
C1199       C  0.75678101  0.64346224  0.33334982    -0.12900
C1200       C  0.75150482  0.67717491  0.31347028    -0.14500
C1201       C  0.82431275  0.82870320  0.42371864    -0.13000
C1202       C  0.83309466  0.84285994  0.47947314     0.09200
C1203       C  0.86770570  0.83210214  0.50445769    -0.13000
C1204       C  0.89509230  0.81099400  0.47061951    -0.13000
C1205       C  0.88828355  0.80175026  0.41116666     0.09200
C1206       C  0.85227754  0.80902992  0.38869132    -0.13000
H1207       H  0.79768414  0.83726506  0.40389349     0.13200
H1208       H  0.87478603  0.84318179  0.54726393     0.13200
H1209       H  0.92279420  0.80485238  0.48855944     0.13200
H1210       H  0.84669447  0.80180086  0.34298680     0.13200
C1211       C  0.64160880  0.66986019  0.52949045    -0.13000
C1212       C  0.67678777  0.65805549  0.50262618     0.09200
C1213       C  0.68746233  0.67231998  0.44483202    -0.13000
C1214       C  0.66051921  0.69036025  0.40868689    -0.13000
C1215       C  0.62392064  0.69857159  0.43308626     0.09200
C1216       C  0.61572248  0.69176232  0.49530554    -0.13000
H1217       H  0.63291665  0.65904530  0.57425215     0.13200
H1218       H  0.71485380  0.66408966  0.42479717     0.13200
H1219       H  0.66744288  0.69532897  0.36099767     0.13200
H1220       H  0.58765311  0.69892856  0.51506137     0.13200
C1221       C  0.59561800  0.87505701  0.49034590    -0.13000
C1222       C  0.60695499  0.91030045  0.46484813     0.09200
C1223       C  0.59329494  0.92373646  0.40898109    -0.13000
C1224       C  0.57097048  0.90075563  0.37664246    -0.13000
C1225       C  0.56150841  0.86461019  0.40067488     0.09200
C1226       C  0.57252578  0.85258001  0.45875161    -0.13000
H1227       H  0.60586524  0.86428453  0.53333760     0.13200
H1228       H  0.60220350  0.95072692  0.38833966     0.13200
H1229       H  0.56302301  0.91005832  0.33165879     0.13200
H1230       H  0.56542908  0.82449779  0.47756250     0.13200
C1231       C  0.91742839  0.61189961  0.47489412    -0.13000
C1232       C  0.90602966  0.57945406  0.44639943     0.09200
C1233       C  0.92465566  0.56850068  0.39154120    -0.13000
C1234       C  0.95087179  0.59236804  0.36193647    -0.13000
C1235       C  0.95934766  0.62690442  0.38761819     0.09200
C1236       C  0.94463017  0.63495663  0.44634818    -0.13000
H1237       H  0.90373054  0.62061462  0.51746118     0.13200
H1238       H  0.91630099  0.54346864  0.36884428     0.13200
H1239       H  0.96131869  0.58599002  0.31637271     0.13200
H1240       H  0.95051210  0.66176398  0.46657629     0.13200
C1241       C  0.83903602  0.72338517  0.81696152    -0.12900
C1242       C  0.87239023  0.71851626  0.83182645    -0.14500
C1243       C  0.65336715  0.72481247  0.83814592    -0.12900
C1244       C  0.68769900  0.72635397  0.82427438    -0.14500
C1245       C  0.75921172  0.81920425  0.70311606    -0.12900
C1246       C  0.75487149  0.85321786  0.68532696    -0.14500
C1247       C  0.76852782  0.63413350  0.68332810    -0.12900
C1248       C  0.76609911  0.66768494  0.70034217    -0.14500
loop_ 
_geom_bond_atom_site_label_1 
_geom_bond_atom_site_label_2 
_geom_bond_distance 
_geom_bond_site_symmetry_2 
_ccdc_geom_bond_type 
C1            C2   1.529       .  S
C1            C7   1.523       .  S
C1            C5   1.578       .  S
C1          C309   1.521       .  S
C2            H9   1.087       .  S
C2            C3   1.364       .  D
C3            C4   1.593       .  S
C3          C305   1.507       .  S
C4            C8   1.590       .  S
C4            C6   1.536       .  S
C4           H10   1.111       .  S
C5           H11   1.085       .  S
C5            C6   1.396       .  D
C6          C312   1.493       .  S
C7           H12   1.088       .  S
C7            C8   1.358       .  D
C8          C308   1.500       .  S
O13          C15   1.286       .  A
O13        Zr337   2.434       .  S
O14          C15   1.279       .  A
O14         Zr51   2.393       .  S
C15         C276   1.456       .  S
O16          C18   1.314       .  A
O16         Zr28   2.570       .  S
O17          C18   1.280       .  A
O17         Zr52   2.401       .  S
C18         C310   1.484       .  S
O19          C21   1.313       .  A
O19        Zr340   2.570   1_545  S
O20          C21   1.277       .  A
O20         Zr51   2.395       .  S
C21         C311   1.484       .  S
O22          C24   1.280       .  A
O22         Zr25   2.423       .  S
O23          C24   1.284       .  A
O23         Zr52   2.429       .  S
C24         C286   1.463       .  S
Zr25        O325   2.421       .  S
Zr25         O26   2.438       .  S
Zr25         O27   2.439       .  S
Zr25         O32   2.378       .  S
Zr25         O55   2.381       .  S
Zr25        O343   2.365       .  S
Zr25        O369   2.382       .  S
O26         H381   0.990       .  S
O27          H72   0.990       .  S
O27         H380   0.990       .  S
Zr28        O331   2.564       .  S
Zr28         O29   2.435       .  S
Zr28         O30   2.437       .  S
Zr28         O32   2.406       .  S
Zr28         O58   2.370       .  S
Zr28        O343   2.387       .  S
Zr28        O368   2.394       .  S
O29          H70   0.990       .  S
O29          H73   0.990       .  S
O30         H375   0.990       .  S
O31         Zr51   2.388       .  S
O31        Zr337   2.371       .  S
O31        Zr340   2.378   1_545  S
O32         Zr52   2.389       .  S
O32          H59   0.964       .  S
O33          C35   1.315       .  A
O33        Zr357   2.575       .  S
O34          C35   1.278       .  A
O34         Zr52   2.398       .  S
C35         C261   1.483       .  S
O36          C38   1.282       .  A
O36        Zr360   2.425   1_545  S
O37          C38   1.289       .  A
O37         Zr51   2.447       .  S
C38         C296   1.477       .  S
O39          C41   1.283       .  A
O39         Zr48   2.414       .  S
O40          C41   1.277       .  A
O40         Zr52   2.386       .  S
C41         C266   1.438       .  S
O42          C44   1.316       .  A
O42         Zr45   2.583       .  S
O43          C44   1.280       .  A
O43         Zr51   2.408       .  S
C44         C263   1.492       .  S
Zr45        O345   2.595   1_545  S
Zr45         O46   2.436       .  S
Zr45         O47   2.434       .  S
Zr45         O57   2.384       .  S
Zr45        O365   2.370   1_545  S
Zr45        O367   2.387   1_545  S
Zr45         O54   2.295       .  S
O46          H71   0.990   1_545  S
O46         H378   0.990       .  S
O47         H379   0.990   1_545  S
Zr48        O348   2.410       .  S
Zr48         O49   2.436       .  S
Zr48         O50   2.435       .  S
Zr48         O53   2.366       .  S
Zr48         O58   2.350       .  S
Zr48        O366   2.383       .  S
Zr48        O368   2.363       .  S
O49         H377   0.990       .  S
O50          H64   0.990       .  S
O50          H74   0.990       .  S
Zr51         O56   2.387       .  S
Zr51         O57   2.396       .  S
Zr51         O54   2.264       .  S
Zr52         O53   2.390       .  S
Zr52         O55   2.373       .  S
Zr52         O58   2.380       .  S
O53        Zr357   2.378       .  S
O53          H61   0.962       .  S
O54        Zr360   2.287   1_545  S
O55        Zr357   2.391       .  S
O56        Zr340   2.404   1_545  S
O56        Zr360   2.377   1_545  S
O56          H60   0.964       .  S
O57        Zr337   2.380       .  S
O57          H62   0.964       .  S
H63         O342   0.990       .  S
H65         O361   0.990       .  S
H66         O358   0.990       .  S
H67         O359   0.990       .  S
H68         O339   0.990       .  S
H69         O338   0.990       .  S
N75         H107   1.042       .  S
N75          C79   1.354   1_655  A
N75         C704   1.350       .  A
N76          C83   1.348       .  A
N76          C84   1.347       .  A
N77         H108   1.037       .  S
N77          C81   1.349       .  A
N77         C706   1.355       .  A
N78          C85   1.345       .  A
N78          C86   1.355       .  A
C79          C87   1.384   1_455  A
C79          C95   1.406       .  A
C80         N699   1.351       .  A
C80          C96   1.421       .  A
C80          C88   1.391       .  A
C81          C89   1.392       .  A
C81          C98   1.421       .  A
C82         N701   1.352       .  A
C82          C97   1.401       .  A
C82          C90   1.385       .  A
C83          C95   1.406       .  A
C83          C91   1.386       .  A
C84          C98   1.409       .  A
C84          C92   1.389       .  A
C85          C93   1.393       .  A
C85          C96   1.410       .  A
C86          C94   1.382       .  A
C86          C97   1.405       .  A
C87         C712   1.370       .  A
C87          H99   1.083       .  S
C88         C711   1.372       .  A
C88         H100   1.083       .  S
C89         C714   1.372       .  A
C89         H101   1.081       .  S
C90         C713   1.367       .  A
C90         H102   1.083       .  S
C91          C92   1.367       .  A
C91         H103   1.083       .  S
C92         H104   1.079       .  S
C93          C94   1.362       .  A
C93         H105   1.081       .  S
C94         H106   1.083       .  S
C95         C289   1.477       .  S
C96         C269   1.464       .  S
C97         C299   1.484       .  S
C98         C279   1.477       .  S
C109        C110   1.526       .  S
C109        C115   1.532       .  S
C109        C113   1.582       .  S
C109        C264   1.529       .  S
C110        H117   1.088       .  S
C110        C111   1.359       .  D
C111        C112   1.592       .  S
C111        C257   1.505       .  S
C112        C116   1.589       .  S
C112        C114   1.534       .  S
C112        H118   1.111       .  S
C113        H119   1.085       .  S
C113        C114   1.398       .  D
C114        C262   1.493       .  S
C115        H120   1.088       .  S
C115        C116   1.365       .  D
C116        C259   1.506       .  S
N121        H153   1.041       .  S
N121        C126   1.340   1_554  A
N121        C125   1.341   1_554  A
N122        C129   1.345       .  A
N122        C442   1.341       .  A
N123        H154   1.043       .  S
N123        C128   1.352       .  A
N123        C127   1.350       .  A
N124        C131   1.349       .  A
N124        C444   1.344       .  A
C125        C133   1.385       .  A
C125        C141   1.397       .  A
C126        C142   1.397   1_556  A
C126        C134   1.389       .  A
C127        C135   1.392       .  A
C127        C144   1.411       .  A
C128        C143   1.405       .  A
C128        C136   1.384       .  A
C129        C141   1.412   1_554  A
C129        C137   1.387       .  A
C130        N434   1.343       .  A
C130        C144   1.392   1_565  A
C130        C138   1.382       .  A
C131        C139   1.385       .  A
C131        C142   1.409       .  A
C132        N436   1.344       .  A
C132        C140   1.385       .  A
C132        C143   1.397       .  A
C133        C134   1.379       .  A
C133        H145   1.082       .  S
C134        H146   1.082       .  S
C135        C136   1.365       .  A
C135        H147   1.081       .  S
C136        H148   1.082       .  S
C137        C450   1.378       .  A
C137        H149   1.082       .  S
C138        C449   1.376       .  A
C138        H150   1.082       .  S
C139        C452   1.382       .  A
C139        H151   1.082       .  S
C140        C451   1.379       .  A
C140        H152   1.082       .  S
C141        C238   1.462       .  S
C142        C231   1.469   1_554  S
C143        C248   1.472       .  S
C144        C218   1.463       .  S
O155        C157   1.319       .  A
O155       Zr167   2.595       .  S
O156        C157   1.277       .  A
O156       Zr193   2.393   1_556  S
C157        C307   1.492       .  S
O158        C160   1.281       .  A
O158       Zr794   2.403       .  S
O159        C160   1.285       .  A
O159       Zr194   2.424   1_556  S
C160        C241   1.469       .  S
O161        C163   1.278       .  A
O161       Zr170   2.401   1_455  S
O162        C163   1.285       .  A
O162       Zr193   2.422   1_556  S
C163        C228   1.471       .  S
O164        C166   1.326       .  A
O164       Zr791   2.628       .  S
O165        C166   1.272       .  A
O165       Zr194   2.367   1_556  S
C166        C306   1.495       .  S
Zr167       O788   2.618   1_455  S
Zr167       O792   2.435       .  S
Zr167       O793   2.434       .  S
Zr167       O173   2.403       .  S
Zr167       O199   2.399       .  S
Zr167       O798   2.375   1_455  S
Zr167       O821   2.403   1_455  S
O168       Zr791   2.436       .  S
O168        H835   0.990       .  S
O169       Zr791   2.433       .  S
O169        H214   0.990       .  S
O169        H834   0.990       .  S
Zr170       O782   2.393       .  S
Zr170       O171   2.437       .  S
Zr170       O172   2.434   1_556  S
Zr170       O173   2.380   1_655  S
Zr170       O198   2.370   1_656  S
Zr170       O798   2.363       .  S
Zr170       O824   2.377   1_556  S
O171        H215   0.990   1_655  S
O171        H836   0.990   1_655  S
O172        H205   0.990       .  S
O173       Zr193   2.378   1_556  S
O174       Zr194   2.391   1_556  S
O174       Zr791   2.378       .  S
O174       Zr794   2.360       .  S
O174        H201   0.964       .  S
O175        C177   1.271       .  A
O175       Zr811   2.369       .  S
O176        C177   1.286       .  A
O176       Zr194   2.436       .  S
C177        C221   1.454       .  S
O178        C180   1.325       .  A
O178       Zr190   2.617   1_455  S
O179        C180   1.274       .  A
O179       Zr193   2.372       .  S
C180        C260   1.493       .  S
O181        C183   1.319       .  A
O181       Zr814   2.596       .  S
O182        C183   1.277       .  A
O182       Zr194   2.396       .  S
C183        C258   1.497       .  S
O184        C186   1.281       .  A
O184       Zr187   2.421       .  S
O185        C186   1.282       .  A
O185       Zr193   2.415       .  S
C186        C251   1.459       .  S
Zr187       O799   2.403   1_455  S
Zr187       O188   2.440       .  S
Zr187       O189   2.437   1_554  S
Zr187       O196   2.351       .  S
Zr187       O199   2.370   1_554  S
Zr187       O819   2.381   1_455  S
Zr187       O821   2.385   1_454  S
O188        H213   0.991       .  S
O188        H832   0.990       .  S
O189        H833   0.990       .  S
Zr190       O805   2.612       .  S
Zr190       O191   2.423       .  S
Zr190       O192   2.436       .  S
Zr190       O196   2.360   1_655  S
Zr190       O198   2.393   1_655  S
Zr190       O819   2.384       .  S
Zr190       O824   2.389       .  S
O191        H207   0.990   1_655  S
O192        H216   0.990       .  S
O192        H830   0.990   1_655  S
Zr193       O196   2.373       .  S
Zr193       O198   2.384       .  S
Zr193       O199   2.391   1_554  S
Zr194       O195   2.388       .  S
Zr194       O197   2.382   1_554  S
Zr194       O200   2.385       .  S
O195       Zr811   2.384       .  S
O195       Zr814   2.400       .  S
O195        H203   0.966       .  S
O197       Zr791   2.392       .  S
O197       Zr811   2.374   1_556  S
O198        H202   0.964       .  S
O199        H204   0.963       .  S
O200       Zr794   2.387   1_554  S
O200       Zr814   2.388       .  S
H206        O816   0.990       .  S
H208        O812   0.990       .  S
H209        O813   0.991   1_554  S
H210        O793   0.990       .  S
H211        O792   0.990       .  S
H212        O795   0.990       .  S
C217        C218   1.407       .  A
C217        C222   1.390       .  A
C217        H223   1.084       .  S
C218        C219   1.396       .  A
C219        C220   1.390       .  A
C219        H224   1.083       .  S
C220        C221   1.408       .  A
C220        H225   1.084       .  S
C221        C222   1.396       .  A
C222        H226   1.084   1_554  S
C227        C228   1.413       .  A
C227        C232   1.398       .  A
C227        H233   1.083       .  S
C228        C229   1.400       .  A
C229        C230   1.385   1_556  A
C229        H234   1.083   1_556  S
C230        C231   1.404   1_554  A
C230        H235   1.084       .  S
C231        C232   1.396       .  A
C232        H236   1.083       .  S
C237        C238   1.395       .  A
C237        C242   1.389       .  A
C237        H243   1.083       .  S
C238        C239   1.401       .  A
C239        C240   1.392       .  A
C239        H244   1.084       .  S
C240        C241   1.403       .  A
C240        H245   1.083       .  S
C241        C242   1.409       .  A
C242        H246   1.083       .  S
C247        C248   1.397       .  A
C247        C252   1.393       .  A
C247        H253   1.083       .  S
C248        C249   1.407       .  A
C249        C250   1.387       .  A
C249        H254   1.084       .  S
C250        C251   1.396       .  A
C250        H255   1.084       .  S
C251        C252   1.408       .  A
C252        H256   1.083       .  S
C257        C258   1.245       .  T
C259        C260   1.245       .  T
C261        C262   1.237       .  T
C263        C264   1.242       .  T
C265        C266   1.400       .  A
C265        C270   1.388       .  A
C265        H271   1.081       .  S
C266        C267   1.397       .  A
C267        C268   1.385       .  A
C267        H272   1.084       .  S
C268        C269   1.401       .  A
C268        H273   1.084       .  S
C269        C270   1.399       .  A
C270        H274   1.084       .  S
C275        C276   1.399       .  A
C275        C280   1.393       .  A
C275        H281   1.083       .  S
C276        C277   1.401       .  A
C277        C278   1.388       .  A
C277        H282   1.077       .  S
C278        C279   1.397       .  A
C278        H283   1.083       .  S
C279        C280   1.408       .  A
C280        H284   1.084       .  S
C285        C286   1.398       .  A
C285        C290   1.392       .  A
C285        H291   1.083       .  S
C286        C287   1.407       .  A
C287        C288   1.398       .  A
C287        H292   1.084       .  S
C288        C289   1.399       .  A
C288        H293   1.083       .  S
C289        C290   1.404       .  A
C290        H294   1.083       .  S
C295        C296   1.401       .  A
C295        C300   1.400       .  A
C295        H301   1.083       .  S
C296        C297   1.406       .  A
C297        C298   1.402       .  A
C297        H302   1.083       .  S
C298        C299   1.404       .  A
C298        H303   1.083       .  S
C299        C300   1.409       .  A
C300        H304   1.083       .  S
C305        C306   1.246       .  T
C307        C308   1.242       .  T
C309        C310   1.237       .  T
C311        C312   1.237       .  T
C313        C314   1.528       .  S
C313        C319   1.526       .  S
C313        C317   1.576       .  S
C313        C621   1.517       .  S
C314        H321   1.087       .  S
C314        C315   1.362       .  D
C315        C316   1.591       .  S
C315        C617   1.506       .  S
C316        C320   1.589       .  S
C316        C318   1.527       .  S
C316        H322   1.111       .  S
C317        H323   1.085       .  S
C317        C318   1.394       .  D
C318        C624   1.479       .  S
C319        H324   1.088       .  S
C319        C320   1.360       .  D
C320        C620   1.504       .  S
O325        C327   1.282       .  A
O326        C327   1.283       .  A
O326       Zr363   2.406       .  S
C327        C588   1.460       .  S
O328        C330   1.313       .  A
O328       Zr340   2.565       .  S
O329        C330   1.279       .  A
O329       Zr364   2.400       .  S
C330        C622   1.481       .  S
O331        C333   1.313       .  A
O332        C333   1.273       .  A
O332       Zr363   2.368       .  S
C333        C623   1.467       .  S
O334        C336   1.285       .  A
O334       Zr337   2.447   1_565  S
O335        C336   1.285       .  A
O335       Zr364   2.433       .  S
C336        C598   1.475       .  S
Zr337       O338   2.436       .  S
Zr337       O339   2.438       .  S
Zr337       O344   2.375   1_545  S
Zr337       O367   2.379   1_545  S
O339        H384   0.990       .  S
Zr340       O341   2.437       .  S
Zr340       O342   2.435       .  S
Zr340       O344   2.404       .  S
Zr340       O370   2.386       .  S
O341        H382   0.990   1_565  S
O341        H385   0.990       .  S
O343       Zr363   2.387       .  S
O344       Zr364   2.385       .  S
O344        H371   0.965       .  S
O345        C347   1.319       .  A
O346        C347   1.277       .  A
O346       Zr364   2.388       .  S
C347        C573   1.487       .  S
O348        C350   1.280       .  A
O349        C350   1.286       .  A
O349       Zr363   2.427       .  S
C350        C608   1.462       .  S
O351        C353   1.286       .  A
O351       Zr360   2.438       .  S
O352        C353   1.276       .  A
O352       Zr364   2.389       .  S
C353        C578   1.442       .  S
O354        C356   1.314       .  A
O354       Zr357   2.577       .  S
O355        C356   1.280       .  A
O355       Zr363   2.409       .  S
C356        C575   1.491       .  S
Zr357       O358   2.433       .  S
Zr357       O359   2.435       .  S
Zr357       O366   2.384       .  S
Zr357       O369   2.381       .  S
O358        H383   0.990       .  S
Zr360       O361   2.436       .  S
Zr360       O362   2.436       .  S
Zr360       O365   2.366       .  S
Zr360       O370   2.358       .  S
O362        H376   0.990       .  S
O362        H386   0.990       .  S
Zr363       O366   2.370       .  S
Zr363       O368   2.384       .  S
Zr363       O369   2.379       .  S
Zr364       O365   2.395       .  S
Zr364       O367   2.382       .  S
Zr364       O370   2.388       .  S
O365        H373   0.961       .  S
O368        H372   0.966       .  S
O369        H374   0.964       .  S
N387        H419   1.039       .  S
N387       C1016   1.349       .  A
N387        C391   1.361   1_655  A
N388        C395   1.343       .  A
N388        C396   1.346       .  A
N389        H420   1.042       .  S
N389       C1018   1.352       .  A
N389        C393   1.356       .  A
N390        C397   1.344       .  A
N390        C398   1.346       .  A
C391        C399   1.383   1_455  A
C391        C407   1.415       .  A
C392       N1011   1.349       .  A
C392        C408   1.415       .  A
C392        C400   1.391       .  A
C393        C401   1.381       .  A
C393        C410   1.408       .  A
C394       N1013   1.353       .  A
C394        C409   1.408       .  A
C394        C402   1.384       .  A
C395        C407   1.409       .  A
C395        C403   1.387       .  A
C396        C410   1.405       .  A
C396        C404   1.388       .  A
C397        C405   1.385       .  A
C397        C408   1.395       .  A
C398        C406   1.388       .  A
C398        C409   1.403       .  A
C399       C1024   1.375       .  A
C399        H411   1.082       .  S
C400       C1023   1.371       .  A
C400        H412   1.082       .  S
C401       C1026   1.369       .  A
C401        H413   1.080       .  S
C402       C1025   1.371       .  A
C402        H414   1.082       .  S
C403        C404   1.367       .  A
C403        H415   1.082       .  S
C404        H416   1.079       .  S
C405        C406   1.370       .  A
C405        H417   1.083       .  S
C406        H418   1.082       .  S
C407        C601   1.486       .  S
C408        C581   1.463       .  S
C409        C611   1.472       .  S
C410        C591   1.471       .  S
C421        C422   1.524       .  S
C421        C427   1.531       .  S
C421        C425   1.582       .  S
C421        C576   1.528       .  S
C422        H429   1.088       .  S
C422        C423   1.359       .  D
C423        C424   1.593       .  S
C423        C569   1.504       .  S
C424        C428   1.593       .  S
C424        C426   1.536       .  S
C424        H430   1.111       .  S
C425        H431   1.085       .  S
C425        C426   1.398       .  D
C426        C574   1.498       .  S
C427        H432   1.087       .  S
C427        C428   1.364       .  D
C428        C571   1.509       .  S
N433        H465   1.040       .  S
N433        C438   1.341   1_554  A
N433        C437   1.343   1_554  A
N434        C441   1.347       .  A
N435        H466   1.043       .  S
N435        C440   1.351       .  A
N435        C439   1.351       .  A
N436        C443   1.348       .  A
C437        C445   1.384       .  A
C437        C453   1.397       .  A
C438        C454   1.403   1_556  A
C438        C446   1.390       .  A
C439        C447   1.389       .  A
C439        C456   1.409       .  A
C440        C455   1.405       .  A
C440        C448   1.385       .  A
C441        C453   1.411   1_554  A
C441        C449   1.388       .  A
C442        C456   1.392       .  A
C442        C450   1.384       .  A
C443        C451   1.384       .  A
C443        C454   1.407   1_545  A
C444        C452   1.385       .  A
C444        C455   1.397       .  A
C445        C446   1.378       .  A
C445        H457   1.083       .  S
C446        H458   1.082       .  S
C447        C448   1.369       .  A
C447        H459   1.083       .  S
C448        H460   1.082       .  S
C449        H461   1.082       .  S
C450        H462   1.082       .  S
C451        H463   1.082   1_545  S
C452        H464   1.082       .  S
C453        C550   1.464       .  S
C454        C543   1.464       .  S
C455        C560   1.468       .  S
C456        C530   1.464       .  S
O467        C469   1.321       .  A
O467       Zr479   2.602       .  S
O468        C469   1.277       .  A
O468       Zr505   2.389   1_556  S
C469        C619   1.494       .  S
O470        C472   1.282       .  A
O470      Zr1106   2.415       .  S
O471        C472   1.283       .  A
O471       Zr506   2.416   1_556  S
C472        C553   1.462       .  S
O473        C475   1.281       .  A
O473       Zr482   2.413   1_455  S
O474        C475   1.286       .  A
O474       Zr505   2.418   1_556  S
C475        C540   1.467       .  S
O476        C478   1.325       .  A
O476      Zr1103   2.623       .  S
O477        C478   1.272       .  A
O477       Zr506   2.367   1_556  S
C478        C618   1.492       .  S
Zr479      O1100   2.610   1_455  S
Zr479      O1104   2.434       .  S
Zr479      O1105   2.434       .  S
Zr479       O485   2.401       .  S
Zr479      O1110   2.374   1_455  S
Zr479      O1133   2.403   1_455  S
Zr479       O511   2.396       .  S
O480      Zr1103   2.435       .  S
O480       H1147   0.990       .  S
O481      Zr1103   2.435       .  S
O481       H1146   0.990       .  S
O481        H526   0.990       .  S
Zr482      O1094   2.402       .  S
Zr482       O483   2.434       .  S
Zr482       O484   2.435   1_556  S
Zr482      O1110   2.359       .  S
Zr482       O485   2.380   1_655  S
Zr482       O510   2.369   1_656  S
Zr482      O1136   2.378   1_556  S
O483       H1148   0.990       .  S
O483        H527   0.990   1_655  S
O484        H517   0.990       .  S
O485       Zr505   2.380   1_556  S
O486      Zr1103   2.377       .  S
O486      Zr1106   2.357       .  S
O486       Zr506   2.382   1_556  S
O486        H513   0.965       .  S
O487        C489   1.275       .  A
O487      Zr1123   2.389       .  S
O488        C489   1.284       .  A
O488       Zr506   2.420       .  S
C489        C533   1.456       .  S
O490        C492   1.326       .  A
O490       Zr502   2.625   1_455  S
O491        C492   1.273       .  A
O491       Zr505   2.368       .  S
C492        C572   1.496       .  S
O493        C495   1.319       .  A
O493      Zr1126   2.594       .  S
O494        C495   1.278       .  A
O494       Zr506   2.397       .  S
C495        C570   1.496       .  S
O496        C498   1.278       .  A
O496       Zr499   2.401       .  S
O497        C498   1.283       .  A
O497       Zr505   2.429       .  S
C498        C563   1.461       .  S
Zr499      O1111   2.386   1_455  S
Zr499       O500   2.439       .  S
Zr499       O501   2.437   1_554  S
Zr499      O1131   2.381   1_455  S
Zr499       O508   2.352       .  S
Zr499       O511   2.370   1_554  S
Zr499      O1133   2.377   1_454  S
O500       H1144   0.990       .  S
O500        H525   0.990       .  S
O501       H1145   0.991   1_556  S
Zr502      O1117   2.598       .  S
Zr502       O503   2.412       .  S
Zr502       O504   2.436       .  S
Zr502       O508   2.364   1_655  S
Zr502      O1131   2.393       .  S
Zr502      O1136   2.385       .  S
Zr502       O510   2.360   1_655  S
O503        H519   0.989   1_655  S
O504       H1142   0.990       .  S
O504        H528   0.990       .  S
Zr505       O508   2.379       .  S
Zr505       O510   2.382       .  S
Zr505       O511   2.388   1_554  S
Zr506       O507   2.377       .  S
Zr506       O509   2.387   1_554  S
Zr506       O512   2.379       .  S
O507      Zr1123   2.382       .  S
O507      Zr1126   2.394       .  S
O507        H515   0.966       .  S
O509      Zr1103   2.399       .  S
O509      Zr1123   2.378   1_556  S
O510        H514   0.965       .  S
O511        H516   0.966       .  S
O512      Zr1106   2.378   1_554  S
O512      Zr1126   2.395       .  S
H518       O1128   0.990       .  S
H520       O1124   0.990       .  S
H521       O1125   0.990       .  S
H522       O1105   0.990       .  S
H523       O1104   0.990   1_655  S
H524       O1107   0.990       .  S
C529        C530   1.406       .  A
C529        C534   1.387       .  A
C529        H535   1.084       .  S
C530        C531   1.394       .  A
C531        C532   1.392       .  A
C531        H536   1.083       .  S
C532        C533   1.409       .  A
C532        H537   1.083       .  S
C533        C534   1.396       .  A
C534        H538   1.084       .  S
C539        C540   1.409       .  A
C539        C544   1.399       .  A
C539        H545   1.083       .  S
C540        C541   1.403   1_556  A
C541        C542   1.384       .  A
C541        H546   1.083       .  S
C542        C543   1.400       .  A
C542        H547   1.084       .  S
C543        C544   1.399   1_554  A
C544        H548   1.083       .  S
C549        C550   1.397       .  A
C549        C554   1.393       .  A
C549        H555   1.083       .  S
C550        C551   1.401       .  A
C551        C552   1.390       .  A
C551        H556   1.084   1_556  S
C552        C553   1.401       .  A
C552        H557   1.084   1_556  S
C553        C554   1.407       .  A
C554        H558   1.083       .  S
C559        C560   1.393       .  A
C559        C564   1.389       .  A
C559        H565   1.083       .  S
C560        C561   1.408       .  A
C561        C562   1.390       .  A
C561        H566   1.084       .  S
C562        C563   1.397       .  A
C562        H567   1.083       .  S
C563        C564   1.409       .  A
C564        H568   1.081       .  S
C569        C570   1.245       .  T
C571        C572   1.247       .  T
C573        C574   1.240       .  T
C575        C576   1.241       .  T
C577        C578   1.403       .  A
C577        C582   1.387       .  A
C577        H583   1.083       .  S
C578        C579   1.394       .  A
C579        C580   1.391       .  A
C579        H584   1.083       .  S
C580        C581   1.407       .  A
C580        H585   1.084       .  S
C581        C582   1.393       .  A
C582        H586   1.083       .  S
C587        C588   1.404       .  A
C587        C592   1.398       .  A
C587        H593   1.083       .  S
C588        C589   1.398       .  A
C589        C590   1.385       .  A
C589        H594   1.077       .  S
C590        C591   1.397       .  A
C590        H595   1.081       .  S
C591        C592   1.405       .  A
C592        H596   1.081       .  S
C597        C598   1.401       .  A
C597        C602   1.398       .  A
C597        H603   1.083       .  S
C598        C599   1.407       .  A
C599        C600   1.402       .  A
C599        H604   1.083       .  S
C600        C601   1.402       .  A
C600        H605   1.083       .  S
C601        C602   1.407       .  A
C602        H606   1.083       .  S
C607        C608   1.399       .  A
C607        C612   1.390       .  A
C607        H613   1.083       .  S
C608        C609   1.407       .  A
C609        C610   1.396       .  A
C609        H614   1.083       .  S
C610        C611   1.398       .  A
C610        H615   1.083       .  S
C611        C612   1.403       .  A
C612        H616   1.084       .  S
C617        C618   1.245       .  T
C619        C620   1.244       .  T
C621        C622   1.235       .  T
C623        C624   1.229       .  T
C625        C626   1.527       .  S
C625        C631   1.526       .  S
C625        C629   1.577       .  S
C625        C933   1.517       .  S
C626        H633   1.087       .  S
C626        C627   1.362       .  D
C627        C628   1.592       .  S
C627        C929   1.505       .  S
C628        C632   1.589       .  S
C628        C630   1.531       .  S
C628        H634   1.111       .  S
C629        H635   1.085       .  S
C629        C630   1.395       .  D
C630        C936   1.486       .  S
C631        H636   1.088       .  S
C631        C632   1.360       .  D
C632        C932   1.502       .  S
O637        C639   1.280       .  A
O637       Zr961   2.412       .  S
O638        C639   1.284       .  A
O638       Zr675   2.415       .  S
C639        C900   1.458       .  S
O640        C642   1.312       .  A
O640       Zr652   2.563       .  S
O641        C642   1.278       .  A
O641       Zr676   2.395       .  S
C642        C934   1.479       .  S
O643        C645   1.314       .  A
O643       Zr964   2.572   1_545  S
O644        C645   1.275       .  A
O644       Zr675   2.379       .  S
C645        C935   1.476       .  S
O646        C648   1.288       .  A
O646       Zr649   2.461       .  S
O647        C648   1.282       .  A
O647       Zr676   2.420       .  S
C648        C910   1.479       .  S
Zr649       O949   2.442       .  S
Zr649       O650   2.436       .  S
Zr649       O651   2.440       .  S
Zr649       O967   2.367       .  S
Zr649       O656   2.377       .  S
Zr649       O679   2.377       .  S
Zr649       O993   2.385       .  S
O650       H1005   0.990       .  S
O651       H1004   0.990       .  S
O651        H696   0.990       .  S
Zr652       O955   2.571       .  S
Zr652       O653   2.437       .  S
Zr652       O654   2.436       .  S
Zr652       O656   2.408       .  S
Zr652       O967   2.374       .  S
Zr652       O992   2.401       .  S
Zr652       O682   2.381       .  S
O653        H694   0.990       .  S
O653        H697   0.990       .  S
O654        H999   0.990       .  S
O655       Zr961   2.367       .  S
O655       Zr964   2.390   1_545  S
O655       Zr675   2.387       .  S
O656       Zr676   2.386       .  S
O656        H683   0.967       .  S
O657        C659   1.317       .  A
O657       Zr981   2.590       .  S
O658        C659   1.279       .  A
O658       Zr676   2.402       .  S
C659        C885   1.489       .  S
O660        C662   1.281       .  A
O660       Zr984   2.412   1_545  S
O661        C662   1.287       .  A
O661       Zr675   2.429       .  S
C662        C920   1.470       .  S
O663        C665   1.287       .  A
O663       Zr672   2.435       .  S
O664        C665   1.275       .  A
O664       Zr676   2.384       .  S
C665        C890   1.439       .  S
O666        C668   1.318       .  A
O666       Zr669   2.593       .  S
O667        C668   1.279       .  A
O667       Zr675   2.404       .  S
C668        C887   1.498       .  S
Zr669       O969   2.580   1_545  S
Zr669       O670   2.432       .  S
Zr669       O671   2.434       .  S
Zr669       O989   2.384   1_545  S
Zr669       O678   2.382       .  S
Zr669       O681   2.378       .  S
Zr669       O991   2.298   1_545  S
O670       H1002   0.990   1_545  S
O670        H695   0.989   1_545  S
O671       H1003   0.990   1_545  S
Zr672       O972   2.423       .  S
Zr672       O673   2.435       .  S
Zr672       O674   2.434       .  S
Zr672       O990   2.391       .  S
Zr672       O677   2.363       .  S
Zr672       O682   2.359       .  S
Zr672       O992   2.374       .  S
O673       H1001   0.991       .  S
O674        H688   0.990       .  S
O674        H698   0.990       .  S
Zr675       O678   2.378       .  S
Zr675       O680   2.388       .  S
Zr675       O681   2.387       .  S
Zr676       O677   2.387       .  S
Zr676       O679   2.373       .  S
Zr676       O682   2.382       .  S
O677       Zr981   2.365       .  S
O677        H685   0.964       .  S
O678       Zr984   2.386   1_545  S
O679       Zr981   2.388       .  S
O680       Zr964   2.393   1_545  S
O680       Zr984   2.377   1_545  S
O680        H684   0.965       .  S
O681       Zr961   2.383       .  S
O681        H686   0.964       .  S
H687        O966   0.990   1_545  S
H689        O985   0.990       .  S
H690        O982   0.990       .  S
H691        O983   0.990       .  S
H692        O963   0.990       .  S
H693        O962   0.990       .  S
N699        H731   1.039       .  S
N699        C703   1.363       .  A
N700        C707   1.344       .  A
N700        C708   1.345       .  A
N701        H732   1.042       .  S
N701        C705   1.357       .  A
N702        C709   1.341       .  A
N702        C710   1.344       .  A
C703        C711   1.383       .  A
C703        C719   1.417       .  A
C704        C720   1.415       .  A
C704        C712   1.392       .  A
C705        C713   1.380       .  A
C705        C722   1.411       .  A
C706        C721   1.410   1_455  A
C706        C714   1.382       .  A
C707        C719   1.409       .  A
C707        C715   1.385       .  A
C708        C722   1.409       .  A
C708        C716   1.391       .  A
C709        C717   1.386       .  A
C709        C720   1.393       .  A
C710        C718   1.388       .  A
C710        C721   1.402       .  A
C711        H723   1.082       .  S
C712        H724   1.082       .  S
C713        H725   1.077       .  S
C714        H726   1.082       .  S
C715        C716   1.369       .  A
C715        H727   1.082       .  S
C716        H728   1.079       .  S
C717        C718   1.369       .  A
C717        H729   1.083       .  S
C718        H730   1.083       .  S
C719        C913   1.489       .  S
C720        C893   1.461       .  S
C721        C923   1.478       .  S
C722        C903   1.470       .  S
C733        C734   1.527       .  S
C733        C739   1.535       .  S
C733        C737   1.583       .  S
C733        C888   1.536       .  S
C734        H741   1.088       .  S
C734        C735   1.361       .  D
C735        C736   1.595       .  S
C735        C881   1.510       .  S
C736        C740   1.593       .  S
C736        C738   1.534       .  S
C736        H742   1.111       .  S
C737        H743   1.085       .  S
C737        C738   1.399       .  D
C738        C886   1.498       .  S
C739        H744   1.086       .  S
C739        C740   1.366       .  D
C740        C883   1.514       .  S
N745        H777   1.041       .  S
N745        C750   1.341   1_554  A
N745        C749   1.341   1_554  A
N746        C753   1.343       .  A
N746       C1066   1.340       .  A
N747        H778   1.041       .  S
N747        C752   1.352       .  A
N747        C751   1.354       .  A
N748        C755   1.345       .  A
N748       C1068   1.342       .  A
C749        C757   1.385       .  A
C749        C765   1.398   1_556  A
C750        C766   1.402   1_556  A
C750        C758   1.390       .  A
C751        C759   1.386       .  A
C751        C768   1.410       .  A
C752        C767   1.411       .  A
C752        C760   1.385       .  A
C753        C765   1.410       .  A
C753        C761   1.387       .  A
C754       N1058   1.344       .  A
C754        C768   1.394   1_565  A
C754        C762   1.382       .  A
C755        C763   1.386       .  A
C755        C766   1.408       .  A
C756       N1060   1.346       .  A
C756        C764   1.388       .  A
C756        C767   1.405       .  A
C757        C758   1.379       .  A
C757        H769   1.082       .  S
C758        H770   1.083       .  S
C759        C760   1.367       .  A
C759        H771   1.082       .  S
C760        H772   1.080       .  S
C761       C1074   1.379       .  A
C761        H773   1.082       .  S
C762       C1073   1.376       .  A
C762        H774   1.082       .  S
C763       C1076   1.385       .  A
C763        H775   1.082       .  S
C764       C1075   1.377       .  A
C764        H776   1.081       .  S
C765        C862   1.460   1_554  S
C766        C855   1.463       .  S
C767        C872   1.476       .  S
C768        C842   1.470       .  S
O779        C781   1.322       .  A
O779       Zr791   2.604       .  S
O780        C781   1.276       .  A
O780       Zr817   2.384   1_556  S
C781        C931   1.492       .  S
O782        C784   1.279       .  A
O783        C784   1.286       .  A
O783       Zr818   2.428   1_556  S
C784        C865   1.465       .  S
O785        C787   1.281       .  A
O785       Zr794   2.407       .  S
O786        C787   1.286       .  A
O786       Zr817   2.420   1_556  S
C787        C852   1.468       .  S
O788        C790   1.324       .  A
O789        C790   1.272       .  A
O789       Zr818   2.369   1_556  S
C790        C930   1.493       .  S
Zr791       O797   2.401       .  S
Zr791       O823   2.400       .  S
O793        H838   0.990       .  S
Zr794       O795   2.434       .  S
Zr794       O796   2.435       .  S
Zr794       O797   2.369       .  S
Zr794       O822   2.378   1_556  S
O795        H839   0.990       .  S
O796        H829   0.990   1_556  S
O797       Zr817   2.386   1_556  S
O798       Zr818   2.381   1_556  S
O798        H825   0.965       .  S
O799        C801   1.278       .  A
O800        C801   1.286       .  A
O800       Zr818   2.429       .  S
C801        C845   1.465       .  S
O802        C804   1.327       .  A
O802       Zr814   2.633       .  S
O803        C804   1.273       .  A
O803       Zr817   2.369       .  S
C804        C884   1.500       .  S
O805        C807   1.323       .  A
O806        C807   1.276       .  A
O806       Zr818   2.388       .  S
C807        C882   1.501       .  S
O808        C810   1.275       .  A
O808       Zr811   2.401       .  S
O809        C810   1.286       .  A
O809       Zr817   2.441       .  S
C810        C875   1.466       .  S
Zr811       O812   2.440       .  S
Zr811       O813   2.439   1_554  S
Zr811       O820   2.349       .  S
Zr811       O823   2.367   1_554  S
O812        H837   0.989       .  S
Zr814       O815   2.421       .  S
Zr814       O816   2.436       .  S
Zr814       O820   2.358       .  S
Zr814       O822   2.370       .  S
O815        H831   0.989       .  S
O816        H840   0.990       .  S
Zr817       O820   2.373       .  S
Zr817       O822   2.383       .  S
Zr817       O823   2.387   1_554  S
Zr818       O819   2.379       .  S
Zr818       O821   2.388   1_554  S
Zr818       O824   2.380       .  S
O819        H827   0.968       .  S
O822        H826   0.965       .  S
O823        H828   0.961       .  S
C841        C842   1.403       .  A
C841        C846   1.386       .  A
C841        H847   1.084       .  S
C842        C843   1.399       .  A
C843        C844   1.399       .  A
C843        H848   1.083       .  S
C844        C845   1.410       .  A
C844        H849   1.083       .  S
C845        C846   1.397       .  A
C846        H850   1.083       .  S
C851        C852   1.411       .  A
C851        C856   1.397       .  A
C851        H857   1.083       .  S
C852        C853   1.402   1_556  A
C853        C854   1.384       .  A
C853        H858   1.083       .  S
C854        C855   1.402       .  A
C854        H859   1.084       .  S
C855        C856   1.396   1_554  A
C856        H860   1.083       .  S
C861        C862   1.395       .  A
C861        C866   1.391       .  A
C861        H867   1.083       .  S
C862        C863   1.401       .  A
C863        C864   1.390       .  A
C863        H868   1.084   1_556  S
C864        C865   1.401       .  A
C864        H869   1.083   1_556  S
C865        C866   1.409       .  A
C866        H870   1.083       .  S
C871        C872   1.397       .  A
C871        C876   1.393       .  A
C871        H877   1.082       .  S
C872        C873   1.407       .  A
C873        C874   1.386       .  A
C873        H878   1.083       .  S
C874        C875   1.396       .  A
C874        H879   1.083       .  S
C875        C876   1.412       .  A
C876        H880   1.082       .  S
C881        C882   1.248       .  T
C883        C884   1.249       .  T
C885        C886   1.240       .  T
C887        C888   1.246       .  T
C889        C890   1.403       .  A
C889        C894   1.385       .  A
C889        H895   1.083       .  S
C890        C891   1.393       .  A
C891        C892   1.391       .  A
C891        H896   1.083       .  S
C892        C893   1.407       .  A
C892        H897   1.084       .  S
C893        C894   1.392       .  A
C894        H898   1.083       .  S
C899        C900   1.404       .  A
C899        C904   1.399       .  A
C899        H905   1.083       .  S
C900        C901   1.396       .  A
C901        C902   1.383       .  A
C901        H906   1.074       .  S
C902        C903   1.395       .  A
C902        H907   1.080       .  S
C903        C904   1.407       .  A
C904        H908   1.082       .  S
C909        C910   1.403       .  A
C909        C914   1.397       .  A
C909        H915   1.083       .  S
C910        C911   1.408       .  A
C911        C912   1.404       .  A
C911        H916   1.083       .  S
C912        C913   1.403       .  A
C912        H917   1.083       .  S
C913        C914   1.404       .  A
C914        H918   1.083       .  S
C919        C920   1.400       .  A
C919        C924   1.391       .  A
C919        H925   1.083       .  S
C920        C921   1.410       .  A
C921        C922   1.398       .  A
C921        H926   1.083       .  S
C922        C923   1.398       .  A
C922        H927   1.083       .  S
C923        C924   1.406       .  A
C924        H928   1.084       .  S
C929        C930   1.245       .  T
C931        C932   1.243       .  T
C933        C934   1.234       .  T
C935        C936   1.233       .  T
C937        C938   1.527       .  S
C937        C943   1.523       .  S
C937        C941   1.580       .  S
C937       C1245   1.518       .  S
C938        H945   1.087       .  S
C938        C939   1.362       .  D
C939        C940   1.588       .  S
C939       C1241   1.501       .  S
C940        C944   1.587       .  S
C940        C942   1.530       .  S
C940        H946   1.111       .  S
C941        H947   1.085       .  S
C941        C942   1.396       .  D
C942       C1248   1.489       .  S
C943        H948   1.088       .  S
C943        C944   1.358       .  D
C944       C1244   1.497       .  S
O949        C951   1.287       .  A
O950        C951   1.278       .  A
O950       Zr987   2.388       .  S
C951       C1212   1.451       .  S
O952        C954   1.313       .  A
O952       Zr964   2.568       .  S
O953        C954   1.277       .  A
O953       Zr988   2.391       .  S
C954       C1246   1.480       .  S
O955        C957   1.314       .  A
O956        C957   1.277       .  A
O956       Zr987   2.390       .  S
C957       C1247   1.481       .  S
O958        C960   1.280       .  A
O958       Zr961   2.420   1_565  S
O959        C960   1.281       .  A
O959       Zr988   2.416       .  S
C960       C1222   1.464       .  S
Zr961       O962   2.437       .  S
Zr961       O963   2.442       .  S
Zr961       O968   2.374   1_545  S
Zr961       O991   2.281   1_545  S
O963       H1008   0.990       .  S
Zr964       O965   2.436       .  S
Zr964       O966   2.434       .  S
Zr964       O968   2.408       .  S
Zr964       O994   2.379       .  S
O965       H1006   0.990       .  S
O965       H1009   0.990   1_565  S
O967       Zr987   2.387       .  S
O968       Zr988   2.387       .  S
O968        H995   0.966       .  S
O969        C971   1.316       .  A
O970        C971   1.280       .  A
O970       Zr988   2.409       .  S
C971       C1197   1.491       .  S
O972        C974   1.282       .  A
O973        C974   1.288       .  A
O973       Zr987   2.440       .  S
C974       C1232   1.475       .  S
O975        C977   1.285       .  A
O975       Zr984   2.427       .  S
O976        C977   1.275       .  A
O976       Zr988   2.377       .  S
C977       C1202   1.445       .  S
O978        C980   1.314       .  A
O978       Zr981   2.575       .  S
O979        C980   1.282       .  A
O979       Zr987   2.417       .  S
C980       C1199   1.494       .  S
Zr981       O982   2.433       .  S
Zr981       O983   2.434       .  S
Zr981       O990   2.398       .  S
Zr981       O993   2.382       .  S
O982       H1007   0.990       .  S
Zr984       O985   2.436       .  S
Zr984       O986   2.439       .  S
Zr984       O989   2.364       .  S
Zr984       O994   2.359       .  S
O986       H1000   0.990       .  S
O986       H1010   0.989       .  S
Zr987       O990   2.373       .  S
Zr987       O992   2.385       .  S
Zr987       O993   2.396       .  S
Zr988       O989   2.388       .  S
Zr988       O994   2.382       .  S
Zr988       O991   2.262       .  S
O989        H997   0.964       .  S
O992        H996   0.966       .  S
O993        H998   0.964       .  S
N1011      H1043   1.042       .  S
N1011      C1015   1.354       .  A
N1012      C1019   1.345       .  A
N1012      C1020   1.345       .  A
N1013      H1044   1.039       .  S
N1013      C1017   1.350       .  A
N1014      C1021   1.346       .  A
N1014      C1022   1.351       .  A
C1015      C1023   1.384       .  A
C1015      C1031   1.406       .  A
C1016      C1032   1.418       .  A
C1016      C1024   1.390       .  A
C1017      C1025   1.392       .  A
C1017      C1034   1.418       .  A
C1018      C1033   1.399   1_455  A
C1018      C1026   1.383       .  A
C1019      C1031   1.402       .  A
C1019      C1027   1.386       .  A
C1020      C1034   1.405       .  A
C1020      C1028   1.389       .  A
C1021      C1029   1.390       .  A
C1021      C1032   1.408       .  A
C1022      C1030   1.384       .  A
C1022      C1033   1.407       .  A
C1023      H1035   1.082       .  S
C1024      H1036   1.083       .  S
C1025      H1037   1.081       .  S
C1026      H1038   1.082   1_455  S
C1027      C1028   1.367       .  A
C1027      H1039   1.083       .  S
C1028      H1040   1.080       .  S
C1029      C1030   1.366       .  A
C1029      H1041   1.081       .  S
C1030      H1042   1.083       .  S
C1031      C1225   1.477       .  S
C1032      C1205   1.468       .  S
C1033      C1235   1.480       .  S
C1034      C1215   1.473       .  S
C1045      C1046   1.524       .  S
C1045      C1051   1.536       .  S
C1045      C1049   1.581       .  S
C1045      C1200   1.531       .  S
C1046      H1053   1.088       .  S
C1046      C1047   1.359       .  D
C1047      C1048   1.593       .  S
C1047      C1193   1.504       .  S
C1048      C1052   1.596       .  S
C1048      C1050   1.538       .  S
C1048      H1054   1.110       .  S
C1049      H1055   1.085       .  S
C1049      C1050   1.398       .  D
C1050      C1198   1.500       .  S
C1051      H1056   1.087       .  S
C1051      C1052   1.367       .  D
C1052      C1195   1.518       .  S
N1057      H1089   1.039   1_556  S
N1057      C1062   1.343       .  A
N1057      C1061   1.342       .  A
N1058      C1065   1.346       .  A
N1059      H1090   1.044       .  S
N1059      C1064   1.351       .  A
N1059      C1063   1.352       .  A
N1060      C1067   1.350       .  A
C1061      C1069   1.385       .  A
C1061      C1077   1.396       .  A
C1062      C1078   1.401   1_556  A
C1062      C1070   1.389       .  A
C1063      C1071   1.388       .  A
C1063      C1080   1.410       .  A
C1064      C1079   1.408       .  A
C1064      C1072   1.385       .  A
C1065      C1077   1.412   1_554  A
C1065      C1073   1.389       .  A
C1066      C1080   1.391       .  A
C1066      C1074   1.384       .  A
C1067      C1075   1.383       .  A
C1067      C1078   1.409   1_545  A
C1068      C1076   1.385       .  A
C1068      C1079   1.393       .  A
C1069      C1070   1.377       .  A
C1069      H1081   1.083       .  S
C1070      H1082   1.082       .  S
C1071      C1072   1.369       .  A
C1071      H1083   1.082       .  S
C1072      H1084   1.081       .  S
C1073      H1085   1.082       .  S
C1074      H1086   1.082       .  S
C1075      H1087   1.082   1_545  S
C1076      H1088   1.082       .  S
C1077      C1174   1.462       .  S
C1078      C1167   1.468   1_554  S
C1079      C1184   1.469       .  S
C1080      C1154   1.466       .  S
O1091      C1093   1.320       .  A
O1091     Zr1103   2.597       .  S
O1092      C1093   1.276       .  A
O1092     Zr1129   2.381   1_556  S
C1093      C1243   1.487       .  S
O1094      C1096   1.282       .  A
O1095      C1096   1.284       .  A
O1095     Zr1130   2.420   1_556  S
C1096      C1177   1.462       .  S
O1097      C1099   1.280       .  A
O1097     Zr1106   2.410       .  S
O1098      C1099   1.286       .  A
O1098     Zr1129   2.421   1_556  S
C1099      C1164   1.469       .  S
O1100      C1102   1.322       .  A
O1101      C1102   1.273       .  A
O1101     Zr1130   2.370   1_556  S
C1102      C1242   1.488       .  S
Zr1103     O1109   2.405       .  S
Zr1103     O1135   2.396       .  S
O1105      H1150   0.990       .  S
Zr1106     O1107   2.438       .  S
Zr1106     O1108   2.437   1_556  S
Zr1106     O1109   2.382       .  S
Zr1106     O1134   2.380   1_556  S
O1107      H1151   0.990       .  S
O1108      H1141   0.990   1_554  S
O1109     Zr1129   2.385   1_556  S
O1110     Zr1130   2.384   1_556  S
O1110      H1137   0.963       .  S
O1111      C1113   1.274       .  A
O1112      C1113   1.285       .  A
O1112     Zr1130   2.433       .  S
C1113      C1157   1.457       .  S
O1114      C1116   1.328       .  A
O1114     Zr1126   2.632       .  S
O1115      C1116   1.276       .  A
O1115     Zr1129   2.382       .  S
C1116      C1196   1.506       .  S
O1117      C1119   1.320       .  A
O1118      C1119   1.276       .  A
O1118     Zr1130   2.387       .  S
C1119      C1194   1.495       .  S
O1120      C1122   1.277       .  A
O1120     Zr1123   2.407       .  S
O1121      C1122   1.286       .  A
O1121     Zr1129   2.440       .  S
C1122      C1187   1.458       .  S
Zr1123     O1124   2.439       .  S
Zr1123     O1125   2.438   1_554  S
Zr1123     O1132   2.348       .  S
Zr1123     O1135   2.369   1_554  S
O1124      H1149   0.991       .  S
Zr1126     O1127   2.421       .  S
Zr1126     O1128   2.435       .  S
Zr1126     O1132   2.343       .  S
Zr1126     O1134   2.385       .  S
O1127      H1143   0.990       .  S
O1128      H1152   0.990       .  S
Zr1129     O1132   2.358       .  S
Zr1129     O1134   2.381       .  S
Zr1129     O1135   2.391   1_554  S
Zr1130     O1131   2.384       .  S
Zr1130     O1133   2.384   1_554  S
Zr1130     O1136   2.386       .  S
O1131      H1139   0.966       .  S
O1134      H1138   0.966       .  S
O1135      H1140   0.963       .  S
C1153      C1154   1.407       .  A
C1153      C1158   1.389       .  A
C1153      H1159   1.084       .  S
C1154      C1155   1.395       .  A
C1155      C1156   1.393       .  A
C1155      H1160   1.083       .  S
C1156      C1157   1.409       .  A
C1156      H1161   1.084       .  S
C1157      C1158   1.396       .  A
C1158      H1162   1.083       .  S
C1163      C1164   1.410       .  A
C1163      C1168   1.401       .  A
C1163      H1169   1.083       .  S
C1164      C1165   1.401   1_556  A
C1165      C1166   1.383       .  A
C1165      H1170   1.083       .  S
C1166      C1167   1.399   1_554  A
C1166      H1171   1.084       .  S
C1167      C1168   1.400       .  A
C1168      H1172   1.083       .  S
C1173      C1174   1.394       .  A
C1173      C1178   1.389       .  A
C1173      H1179   1.083       .  S
C1174      C1175   1.403       .  A
C1175      C1176   1.392       .  A
C1175      H1180   1.084   1_556  S
C1176      C1177   1.400       .  A
C1176      H1181   1.083       .  S
C1177      C1178   1.408       .  A
C1178      H1182   1.084       .  S
C1183      C1184   1.395       .  A
C1183      C1188   1.395       .  A
C1183      H1189   1.083       .  S
C1184      C1185   1.407       .  A
C1185      C1186   1.385       .  A
C1185      H1190   1.084       .  S
C1186      C1187   1.394       .  A
C1186      H1191   1.083       .  S
C1187      C1188   1.411       .  A
C1188      H1192   1.084       .  S
C1193      C1194   1.245       .  T
C1195      C1196   1.252       .  T
C1197      C1198   1.241       .  T
C1199      C1200   1.243       .  T
C1201      C1202   1.403       .  A
C1201      C1206   1.389       .  A
C1201      H1207   1.082       .  S
C1202      C1203   1.396       .  A
C1203      C1204   1.387       .  A
C1203      H1208   1.084       .  S
C1204      C1205   1.404       .  A
C1204      H1209   1.084       .  S
C1205      C1206   1.398       .  A
C1206      H1210   1.083       .  S
C1211      C1212   1.398       .  A
C1211      C1216   1.394       .  A
C1211      H1217   1.083       .  S
C1212      C1213   1.397       .  A
C1213      C1214   1.385       .  A
C1213      H1218   1.073       .  S
C1214      C1215   1.395       .  A
C1214      H1219   1.082       .  S
C1215      C1216   1.408       .  A
C1216      H1220   1.083       .  S
C1221      C1222   1.400       .  A
C1221      C1226   1.393       .  A
C1221      H1227   1.083       .  S
C1222      C1223   1.407       .  A
C1223      C1224   1.396       .  A
C1223      H1228   1.083       .  S
C1224      C1225   1.397       .  A
C1224      H1229   1.083       .  S
C1225      C1226   1.406       .  A
C1226      H1230   1.084       .  S
C1231      C1232   1.401       .  A
C1231      C1236   1.397       .  A
C1231      H1237   1.083       .  S
C1232      C1233   1.407       .  A
C1233      C1234   1.400       .  A
C1233      H1238   1.083       .  S
C1234      C1235   1.401       .  A
C1234      H1239   1.083       .  S
C1235      C1236   1.408       .  A
C1236      H1240   1.084       .  S
C1241      C1242   1.242       .  T
C1243      C1244   1.240       .  T
C1245      C1246   1.235       .  T
C1247      C1248   1.235       .  T
