geometry optimzed in LAMMPS
_audit_creation_date              2020-12-01 
_audit_creation_method            'lammps2cif' 
_symmetry_space_group_name_H-M    'P1' 
_symmetry_Int_Tables_number       1 
_symmetry_cell_setting            triclinic 
loop_ 
_symmetry_equiv_pos_as_xyz 
  x,y,z 
_cell_length_a                    38.27834897 
_cell_length_b                    38.23714081825987 
_cell_length_c                    38.32323866682979 
_cell_angle_alpha                 89.97961805921405 
_cell_angle_beta                  89.91308036002583 
_cell_angle_gamma                 90.0377020062087 
loop_ 
_atom_site_label 
_atom_site_type_symbol 
_atom_site_fract_x 
_atom_site_fract_y 
_atom_site_fract_z 
_atom_site_charge 
C1          C  0.34333761  0.22261202  0.52378315     0.80800
N2          N  0.33058684  0.23374162  0.49289328    -0.77500
C3          C  0.33072009  0.21267843  0.46464041     0.83200
N4          N  0.34365324  0.17974581  0.46720193    -0.77500
C5          C  0.35701709  0.16843743  0.49791367     0.83300
N6          N  0.35647486  0.18971233  0.52607280    -0.79200
C7          C  0.14239708  0.40726056  0.46086387     0.80800
N8          N  0.15868351  0.39790828  0.49119516    -0.77500
C9          C  0.14416968  0.40502726  0.52297772     0.83200
N10         N  0.11272753  0.42222208  0.52433098    -0.77500
C11         C  0.09591382  0.43256661  0.49454407     0.83300
N12         N  0.11085803  0.42448327  0.46292866    -0.79200
C13         C  0.12946013  0.52385562  0.35778890     0.80800
N14         N  0.09725712  0.52226561  0.37245846    -0.77500
C15         C  0.08239778  0.55163343  0.38544727     0.83200
N16         N  0.09924134  0.58262656  0.38253630    -0.77500
C17         C  0.13135833  0.58440082  0.36754811     0.83300
N18         N  0.14612911  0.55479010  0.35532327    -0.79200
C19         C  0.32134296  0.52687698  0.17084212     0.80800
N20         N  0.33967872  0.52727883  0.14024251    -0.77500
C21         C  0.34939364  0.55787938  0.12473278     0.83200
N22         N  0.33961580  0.58882313  0.14003251    -0.77500
C23         C  0.32146472  0.58912076  0.17105847     0.83300
N24         N  0.31260557  0.55792267  0.18617911    -0.79200
C25         C  0.47730754  0.21149113  0.35026032     0.80800
N26         N  0.47643667  0.18011431  0.36652041    -0.77500
C27         C  0.44638397  0.16594710  0.37844059     0.83200
N28         N  0.41576646  0.18366251  0.37361953    -0.77500
C29         C  0.41626426  0.21588805  0.35768743     0.83300
N30         N  0.44703056  0.22928081  0.34597417    -0.79200
C31         C  0.45611823  0.41687834  0.17218924     0.80800
N32         N  0.48664646  0.41020744  0.18859738    -0.77500
C33         C  0.51732573  0.42195360  0.17528330     0.83200
N34         N  0.51767618  0.43976875  0.14438086    -0.77500
C35         C  0.48696446  0.44729589  0.12820506     0.83300
N36         N  0.45666267  0.43552327  0.14212615    -0.79200
C37         C  0.11775994  0.38110940  0.96056583     0.80800
N38         N  0.12808066  0.36437783  0.99032093    -0.77500
C39         C  0.12103571  0.37787972  0.02251741     0.83200
N40         N  0.10350248  0.40897039  0.02498975    -0.77500
C41         C  0.09257697  0.42631701  0.99575162     0.83300
N42         N  0.10015642  0.41227223  0.96367002    -0.79200
C43         C  0.31054556  0.19641068  0.96650013     0.80800
N44         N  0.34333698  0.18285382  0.96641702    -0.77500
C45         C  0.35614827  0.16790130  0.99579614     0.83200
N46         N  0.33655319  0.16754252  0.02519387    -0.77500
C47         C  0.30400676  0.18143885  0.02562875     0.83300
N48         N  0.29127668  0.19575758  0.99604416    -0.79200
O49         O  0.10932992  0.33682823  0.73813855    -0.87600
C50         C  0.26044090  0.25059734  0.63983663     1.12400
O51         O  0.18896731  0.33439087  0.73857022    -1.35400
O52         O  0.18592655  0.21790936  0.67245139    -0.89100
O53         O  0.13210993  0.37923640  0.77120985    -0.89800
O54         O  0.16845431  0.29717034  0.81268276    -0.78600
O55         O  0.14820215  0.28073964  0.69980254    -1.00700
C56         C  0.23756241  0.22316118  0.79071579     1.22400
O57         O  0.24573043  0.30827437  0.77250187    -1.35600
Mn58       Mn  0.24239741  0.32839539  0.71916910     1.82100
O59         O  0.20681638  0.23536530  0.79189217    -0.77700
O60         O  0.21815305  0.19543939  0.71512792    -0.87100
C61         C  0.30902238  0.28736512  0.70531593     1.13500
C62         C  0.19465161  0.19274598  0.69198495     1.08300
O63         O  0.26557670  0.37899379  0.73156714    -0.78600
O64         O  0.22105736  0.27557271  0.71415254    -1.32300
O65         O  0.23616284  0.37860495  0.77781407    -0.97800
C66         C  0.26696629  0.28344099  0.85544329     1.07000
Mn67       Mn  0.25680382  0.23393560  0.71763064     1.48600
O68         O  0.24265156  0.30581770  0.85261953    -0.87000
Mn69       Mn  0.18597583  0.37836609  0.77101287     1.49600
O70         O  0.14937606  0.38668309  0.69302972    -0.90900
C71         C  0.13334909  0.26153973  0.72058082     1.20200
C72         C  0.16813782  0.41272601  0.70166473     1.12200
Mn73       Mn  0.19524611  0.28399876  0.76424165     1.81000
O74         O  0.29348552  0.26904301  0.72611747    -0.96100
Mn75       Mn  0.14852605  0.33264770  0.70121519     1.49300
C76         C  0.10696588  0.36015917  0.76141300     1.08700
Mn77       Mn  0.28986781  0.27640500  0.77682679     1.49900
C78         C  0.32231706  0.34255354  0.80121165     1.11600
O79         O  0.19042997  0.34763890  0.81183953    -1.01900
O80         O  0.26525103  0.23005034  0.66507120    -0.91500
C81         C  0.17012820  0.32753358  0.82577681     1.22900
O82         O  0.25744307  0.23651287  0.76942502    -1.02300
O83         O  0.23359496  0.26990714  0.63766413    -0.89700
O84         O  0.32429181  0.31796890  0.77913460    -0.89300
O85         O  0.18721783  0.41259590  0.72874424    -0.89300
Mn86       Mn  0.18961155  0.27154322  0.66995548     1.47900
O87         O  0.29451973  0.31640038  0.69851690    -0.77800
C88         C  0.25932053  0.39228252  0.76120671     1.16000
O89         O  0.14625746  0.25949291  0.75092288    -0.76500
O90         O  0.23310278  0.35057662  0.66685693    -0.76100
Mn91       Mn  0.24139411  0.34412581  0.81387320     1.51100
O92         O  0.28714584  0.27499666  0.83066287    -0.88500
O93         O  0.18491537  0.32330402  0.66535099    -0.96000
O94         O  0.29465172  0.34998922  0.81765181    -0.91000
C95         C  0.20447713  0.34458458  0.65115712     1.13800
C96         C  0.10467799  0.02156925  0.33292724     0.80800
N97         N  0.10914949  0.05248456  0.31664113    -0.77500
C98         C  0.09767569  0.08253546  0.33112115     0.83200
N99         N  0.08148949  0.08123356  0.36270293    -0.77500
C100        C  0.07626593  0.05019684  0.37897327     0.83300
N101        N  0.08815467  0.02044126  0.36416728    -0.79200
C102        C  0.29869066  0.02515978  0.14450488     0.80800
N103        N  0.32948092  0.02557916  0.12640665    -0.77500
C104        C  0.34474521  0.05620037  0.11629291     0.83200
N105        N  0.32899602  0.08710398  0.12534346    -0.77500
C106        C  0.29773711  0.08737871  0.14306676     0.83300
N107        N  0.28289294  0.05621033  0.15245527    -0.79200
O108        O  0.25098174  0.81381453  0.14281080    -0.87600
C109        C  0.16722723  0.70478405  0.28801478     1.12400
O110        O  0.25326529  0.80683693  0.22155507    -1.35400
O111        O  0.13687265  0.73930391  0.22104492    -0.89100
O112        O  0.29612711  0.84289898  0.16483748    -0.89800
O113        O  0.21750626  0.88157291  0.20553083    -0.78600
O114        O  0.19771247  0.77087966  0.18246671    -1.00700
C115        C  0.14115718  0.85717782  0.27269242     1.22400
O116        O  0.22875149  0.83805249  0.27998891    -1.35600
Mn117      Mn  0.24723662  0.78452616  0.27361523     1.82100
O118        O  0.15478589  0.85936215  0.24265094    -0.77700
O119        O  0.11483518  0.78436818  0.25098182    -0.87100
C120        C  0.20535241  0.76793005  0.33758566     1.13500
C121        C  0.11210832  0.75969164  0.22908235     1.08300
O122        O  0.29854379  0.79292960  0.29566260    -0.78600
O123        O  0.19443874  0.78176648  0.25334444    -1.32300
O124        O  0.30223591  0.84145157  0.26947844    -0.97800
C125        C  0.20568463  0.91928554  0.30479746     1.07000
Mn126      Mn  0.15320538  0.78566709  0.28917260     1.48600
O127        O  0.23033654  0.91691668  0.28282804    -0.87000
Mn128      Mn  0.29812192  0.83806575  0.21882539     1.49600
O129        O  0.30220841  0.76598786  0.17335523    -0.90900
C130        C  0.17603063  0.79034908  0.16936261     1.20200
C131        C  0.32746689  0.76850843  0.19420155     1.12200
Mn132      Mn  0.20322400  0.83254259  0.22963790     1.81000
O133        O  0.18906293  0.79102336  0.32361411    -0.96100
Mn134      Mn  0.24951365  0.77283047  0.17896848     1.49300
C135        C  0.27451683  0.83716875  0.14042141     1.08700
Mn136      Mn  0.19582557  0.84107330  0.32356837     1.49900
C137        C  0.26541570  0.85809115  0.35844156     1.11600
O138        O  0.26841630  0.87913813  0.22736063    -1.01900
O139        O  0.14995750  0.73216986  0.29471478    -0.91500
C140        C  0.24797965  0.89435503  0.20808225     1.22900
O141        O  0.15496474  0.83675021  0.29276934    -1.02300
O142        O  0.18934460  0.70299537  0.26334492    -0.89700
O143        O  0.23773884  0.83979533  0.35794599    -0.89300
O144        O  0.32991167  0.79350044  0.21591400    -0.89300
Mn145      Mn  0.19088307  0.73756472  0.22161793     1.47900
O146        O  0.23472048  0.76096275  0.32405348    -0.77800
C147        C  0.31548847  0.82068710  0.28962114     1.16000
O148        O  0.17515220  0.82129598  0.18114063    -0.76500
O149        O  0.26803387  0.73267249  0.26084975    -0.76100
Mn150      Mn  0.26746908  0.87746772  0.27864267     1.51100
O151        O  0.19573752  0.89464126  0.32440380    -0.88500
O152        O  0.24174467  0.73468691  0.21289785    -0.96000
O153        O  0.27533525  0.87629041  0.33250568    -0.91000
C154        C  0.26272992  0.71930210  0.23102570     1.13800
C155        C  0.95723203  0.20042967  0.33526165     0.80800
N156        N  0.98759996  0.20619684  0.31805692    -0.77500
C157        C  0.01862933  0.19646963  0.33208596     0.83200
N158        N  0.01930317  0.18104967  0.36452990    -0.77500
C159        C  0.98855604  0.17443366  0.38171052     0.83300
N160        N  0.95811413  0.18453885  0.36685349    -0.79200
C161        C  0.98298945  0.37544436  0.13193558     0.80800
N162        N  0.98328743  0.40664389  0.11536307    -0.77500
C163        C  0.95339177  0.42357100  0.10753370     0.83200
N164        N  0.92217801  0.40917483  0.11691298    -0.77500
C165        C  0.92145869  0.37730677  0.13317327     0.83300
N166        N  0.95194853  0.36089597  0.14090170    -0.79200
O167        O  0.80064385  0.25862019  0.31923647    -0.87600
C168        C  0.60658623  0.24698834  0.27945038     1.12400
O169        O  0.74644025  0.30123868  0.27959124    -1.35400
O170        O  0.68332520  0.19245853  0.24340855    -0.89100
O171        O  0.82625020  0.29658064  0.28317889    -0.89800
O172        O  0.78899547  0.29177860  0.20429551    -0.78600
O173        O  0.73803045  0.22867278  0.28598648    -1.00700
C174        C  0.69966328  0.26085456  0.16469461     1.22400
O175        O  0.71721814  0.33180867  0.22157275    -1.35600
Mn176      Mn  0.69483929  0.32373493  0.27295437     1.82100
O177        O  0.72924731  0.25762480  0.17834732    -0.77700
O178        O  0.64617729  0.21919551  0.20762598    -0.87100
C179        C  0.63189405  0.34413128  0.23306781     1.13500
C180        C  0.66308449  0.19235846  0.21707433     1.08300
O181        O  0.70547164  0.37242092  0.29779122    -0.78600
O182        O  0.68788907  0.27245257  0.24966909    -1.32300
O183        O  0.75442270  0.37313443  0.27303460    -0.97800
C184        C  0.74690870  0.35896170  0.14108679     1.07000
Mn185      Mn  0.64584102  0.27277478  0.21473021     1.48600
O186        O  0.75732604  0.37495101  0.16818845    -0.87000
Mn187      Mn  0.78848623  0.33625232  0.28050505     1.49600
O188        O  0.75098306  0.30302330  0.35963707    -0.90900
C189        C  0.75874553  0.21549653  0.26598235     1.20200
C190        C  0.77199415  0.32875939  0.36107459     1.12200
Mn191      Mn  0.73969504  0.28020598  0.22770423     1.81000
O192        O  0.64577028  0.32352796  0.21352405    -0.96100
Mn193      Mn  0.74675834  0.26483033  0.32054994     1.49300
C194        C  0.82716010  0.26946903  0.30249825     1.08700
Mn195      Mn  0.68225754  0.33268143  0.17961735     1.49900
C196        C  0.68577118  0.41299480  0.19866476     1.11600
O197        O  0.78916765  0.34053329  0.22963511    -1.01900
O198        O  0.60748452  0.26810638  0.25377485    -0.91500
C199        C  0.80256946  0.32145234  0.20820710     1.22900
O200        O  0.67978307  0.28168767  0.17794919    -1.02300
O201        O  0.63337306  0.23034731  0.28952963    -0.89700
O202        O  0.67601127  0.38652149  0.18129379    -0.89300
O203        O  0.78826234  0.34043092  0.33462432    -0.89300
Mn204      Mn  0.68723243  0.22960096  0.28367751     1.47900
O205        O  0.64557250  0.34779966  0.26260468    -0.77800
C206        C  0.73511636  0.38604514  0.29449044     1.16000
O207        O  0.76336691  0.23072152  0.23731251    -0.76500
O208        O  0.67154886  0.31205241  0.32189287    -0.76100
Mn209      Mn  0.75177468  0.37417489  0.22215921     1.51100
O210        O  0.72135188  0.33766209  0.14153493    -0.88500
O211        O  0.69585402  0.26264161  0.32139717    -0.96000
O212        O  0.71184606  0.41196950  0.21928982    -0.91000
C213        C  0.67524792  0.28232609  0.33527338     1.13800
C214        C  0.65104475  0.18427336  0.98591953     0.80800
N215        N  0.66518749  0.19170331  0.01741661    -0.77500
C216        C  0.64812518  0.18301417  0.04722892     0.83200
N217        N  0.61614952  0.16734967  0.04550732    -0.77500
C218        C  0.60202921  0.15953192  0.01393380     0.83300
N219        N  0.61945115  0.16832903  0.98452409    -0.79200
C220        C  0.82036809  0.39481972  0.01328979     0.80800
N221        N  0.83813509  0.42540560  0.01264219    -0.77500
C222        C  0.85128080  0.43891810  0.98283988     0.83200
N223        N  0.84664849  0.42108663  0.95229710    -0.77500
C224        C  0.82980847  0.38933233  0.95258895     0.83300
N225        N  0.81643241  0.37675529  0.98305553    -0.79200
C226        C  0.93888891  0.20300322  0.66900265     0.80800
N227        N  0.97002465  0.21181540  0.68417567    -0.77500
C228        C  0.00113394  0.20264135  0.66914604     0.83200
N229        N  0.00066483  0.18388018  0.63882563    -0.77500
C230        C  0.97013578  0.17455730  0.62316390     0.83300
N231        N  0.93926600  0.18464312  0.63821060    -0.79200
C232        C  0.99981306  0.39501566  0.85559613     0.80800
N233        N  0.00224849  0.42585975  0.87289152    -0.77500
C234        C  0.97356164  0.43980138  0.88816252     0.83200
N235        N  0.94234514  0.42349111  0.88507931    -0.77500
C236        C  0.93980036  0.39279792  0.86756208     0.83300
N237        N  0.96866335  0.37874679  0.85296829    -0.79200
O238        O  0.79792639  0.37759861  0.78780934    -0.87600
C239        C  0.61134512  0.31800499  0.81058880     1.12400
O240        O  0.74696693  0.32987401  0.75135693    -1.35400
O241        O  0.69403446  0.28666485  0.85858916    -0.89100
O242        O  0.82508885  0.33462338  0.75934342    -0.89800
O243        O  0.79566216  0.25623809  0.75769431    -0.78600
O244        O  0.74153497  0.33708013  0.82327100    -1.00700
C245        C  0.70880922  0.20791096  0.78933624     1.22400
O246        O  0.72087698  0.27121778  0.72044555    -1.35600
Mn247      Mn  0.69556697  0.32123179  0.72966139     1.82100
O248        O  0.73703861  0.22452386  0.79461293    -0.77700
O249        O  0.65556885  0.25002663  0.83490762    -0.87100
C250        C  0.63281202  0.27715346  0.71054322     1.13500
C251        C  0.67558600  0.25915430  0.85975480     1.08300
O252        O  0.70523190  0.34907865  0.68067701    -0.78600
O253        O  0.69165482  0.29589391  0.78050541    -1.32300
O254        O  0.75609189  0.32689802  0.67912752    -0.97800
C255        C  0.75766950  0.19669837  0.69210145     1.07000
Mn256      Mn  0.65160587  0.25805076  0.78111377     1.48600
O257        O  0.76045210  0.22219809  0.67151988    -0.87000
Mn258      Mn  0.79002053  0.33347780  0.71801669     1.49600
O259        O  0.74214991  0.40926962  0.74579595    -0.90900
C260        C  0.76556362  0.31931903  0.83508200     1.20200
C261        C  0.76674082  0.41213034  0.72384133     1.12200
Mn262      Mn  0.74465546  0.27684565  0.77207034     1.81000
O263        O  0.64840843  0.25658329  0.72937418    -0.96100
Mn264      Mn  0.74426819  0.37267760  0.78563690     1.49300
C265        C  0.82428004  0.35834104  0.78247609     1.08700
Mn266      Mn  0.68921563  0.22672083  0.71813031     1.49900
C267        C  0.68807912  0.24997314  0.63995639     1.11600
O268        O  0.79286996  0.28247083  0.70947155    -1.01900
O269        O  0.61268023  0.29472982  0.78722883    -0.91500
C270        C  0.80843260  0.26147424  0.72762372     1.22900
O271        O  0.68754833  0.22224877  0.76992738    -1.02300
O272        O  0.63721995  0.32794720  0.82827457    -0.89700
O273        O  0.68236022  0.22904758  0.66488044    -0.89300
O274        O  0.78823099  0.38780277  0.71721537    -0.89300
Mn275      Mn  0.69023944  0.32856004  0.82441314     1.47900
O276        O  0.64575636  0.30748149  0.70745605    -0.77800
C277        C  0.73553550  0.34844763  0.66723723     1.16000
O278        O  0.77040832  0.28953546  0.82127070    -0.76500
O279        O  0.66899531  0.36938089  0.74359355    -0.76100
Mn280      Mn  0.75369801  0.27485744  0.67666423     1.51100
O281        O  0.73289407  0.19425648  0.71392791    -0.88500
O282        O  0.69321350  0.36958532  0.79292433    -0.96000
O283        O  0.71185932  0.27318071  0.64134991    -0.91000
C284        C  0.67166980  0.38286037  0.77361928     1.13800
C285        C  0.12261343  0.71481335  0.99230828     0.80800
N286        N  0.12573768  0.73276584  0.02255920    -0.77500
C287        C  0.11263449  0.71960175  0.05276808     0.83200
N288        N  0.09682142  0.68730036  0.05269437    -0.77500
C289        C  0.09332968  0.66928760  0.02205876     0.83300
N290        N  0.10628291  0.68338873  0.99231222    -0.79200
C291        C  0.29972973  0.91552827  0.01361671     0.80800
N292        N  0.28299360  0.90797681  0.98345005    -0.77500
C293        C  0.29582266  0.91922995  0.95235260     0.83200
N294        N  0.32632629  0.93780157  0.95130210    -0.77500
C295        C  0.34296655  0.94590010  0.98151324     0.83300
N296        N  0.32957061  0.93454168  0.01218387    -0.79200
C297        C  0.10624386  0.00687434  0.67193477     0.80800
N298        N  0.12078687  0.03732251  0.68306610    -0.77500
C299        C  0.11528518  0.06747930  0.66534248     0.83200
N300        N  0.09479869  0.06695584  0.63660433    -0.77500
C301        C  0.08047652  0.03697987  0.62465261     0.83300
N302        N  0.08666600  0.00654510  0.64204397    -0.79200
C303        C  0.31058460  0.04334039  0.84719249     0.80800
N304        N  0.29274912  0.07361791  0.84269322    -0.77500
C305        C  0.30600571  0.10452302  0.85427785     0.83200
N306        N  0.33815280  0.10510503  0.87022872    -0.77500
C307        C  0.35600574  0.07461347  0.87518899     0.83300
N308        N  0.34189856  0.04438473  0.86355387    -0.79200
O309        O  0.32767813  0.83730549  0.74362292    -0.87600
C310        C  0.19163042  0.74880752  0.86263813     1.12400
O311        O  0.24798604  0.83190465  0.74938511    -1.35400
O312        O  0.26301915  0.71992362  0.82053780    -0.89100
O313        O  0.30129943  0.87310946  0.70612565    -0.89800
O314        O  0.26352242  0.78970149  0.67900184    -0.78600
O315        O  0.29181548  0.78244034  0.78657924    -1.00700
C316        C  0.20120829  0.71552674  0.71045157     1.22400
O317        O  0.18898831  0.80124589  0.72197625    -1.35600
Mn318      Mn  0.19693167  0.82479078  0.77289729     1.82100
O319        O  0.23023990  0.73010083  0.70581245    -0.77700
O320        O  0.22465368  0.69296393  0.78620314    -0.87100
C321        C  0.13384010  0.78496603  0.79348865     1.13500
C322        C  0.25224742  0.69288604  0.80474178     1.08300
O323        O  0.17279088  0.87414760  0.76159615    -0.78600
O324        O  0.21966550  0.77322481  0.78050308    -1.32300
O325        O  0.19645632  0.87333765  0.71209634    -0.97800
C326        C  0.16300333  0.76897156  0.64218216     1.07000
Mn327      Mn  0.18490670  0.73078343  0.78237761     1.48600
O328        O  0.18305367  0.79552967  0.64257522    -0.87000
Mn329      Mn  0.24743694  0.87342574  0.71331515     1.49600
O330        O  0.28886592  0.88700397  0.78843078    -0.90900
C331        C  0.30538419  0.76141605  0.76724695     1.20200
C332        C  0.27291195  0.91384894  0.77751057     1.12200
Mn333      Mn  0.24096152  0.77968322  0.72846365     1.81000
O334        O  0.14750965  0.76434824  0.77365487    -0.96100
Mn335      Mn  0.29042894  0.83320035  0.78355885     1.49300
C336        C  0.32820836  0.85696023  0.71680847     1.08700
Mn337      Mn  0.14728775  0.76514615  0.72287078     1.49900
C338        C  0.10667544  0.82836539  0.69673441     1.11600
O339        O  0.23843150  0.83881661  0.67702264    -1.01900
O340        O  0.17987494  0.73242266  0.83635624    -0.91500
C341        C  0.25896844  0.81845585  0.66394254     1.22900
O342        O  0.18160291  0.72878522  0.73154672    -1.02300
O343        O  0.21818796  0.76881391  0.86083479    -0.89700
O344        O  0.10782615  0.80300545  0.71817255    -0.89300
O345        O  0.25210954  0.91281311  0.75160708    -0.89300
Mn346      Mn  0.25601186  0.77355697  0.82137561     1.47900
O347        O  0.14825017  0.81420945  0.79720050    -0.77800
C348        C  0.17577806  0.88720766  0.73160392     1.16000
O349        O  0.29078197  0.75665362  0.73833394    -0.76500
O350        O  0.20835090  0.84897215  0.82171495    -0.76100
Mn351      Mn  0.18753939  0.83552262  0.67945167     1.51100
O352        O  0.14723273  0.75805606  0.66921119    -0.88500
O353        O  0.25752800  0.82448996  0.82130839    -0.96000
O354        O  0.13363459  0.83986574  0.68132737    -0.91000
C355        C  0.23809041  0.84532550  0.83502994     1.13800
C356        C  0.94274896  0.71997760  0.12893770     0.80800
N357        N  0.97240666  0.73336454  0.14252904    -0.77500
C358        C  0.00243667  0.71485277  0.14204467     0.83200
N359        N  0.00297168  0.68208339  0.12834238    -0.77500
C360        C  0.97347933  0.66878688  0.11401888     0.83300
N361        N  0.94372312  0.68767301  0.11457874    -0.79200
C362        C  0.94304610  0.90466601  0.32229866     0.80800
N363        N  0.97522810  0.89789009  0.30828563    -0.77500
C364        C  0.00516413  0.90849297  0.32464461     0.83200
N365        N  0.00227992  0.92595690  0.35574913    -0.77500
C366        C  0.97042775  0.93322170  0.37029883     0.83300
N367        N  0.94091554  0.92214567  0.35344916    -0.79200
C368        C  0.84089148  0.03868360  0.32143647     0.80800
N369        N  0.85751511  0.03987921  0.35245126    -0.77500
C370        C  0.86437443  0.07047418  0.36857894     0.83200
N371        N  0.85386924  0.10101610  0.35357654    -0.77500
C372        C  0.83791834  0.10021791  0.32167779     0.83300
N373        N  0.83105219  0.06906807  0.30620486    -0.79200
C374        C  0.63646683  0.00423208  0.13715643     0.80800
N375        N  0.60414700  0.00356584  0.12145076    -0.77500
C376        C  0.58765252  0.03441507  0.11388463     0.83200
N377        N  0.60289142  0.06478992  0.12327280    -0.77500
C378        C  0.63405679  0.06588670  0.13973000     0.83300
N379        N  0.65075005  0.03541035  0.14651073    -0.79200
O380        O  0.63517343  0.77642360  0.18297781    -0.87600
C381        C  0.82492014  0.74615616  0.21307155     1.12400
O382        O  0.69305464  0.80805213  0.22569024    -1.35400
O383        O  0.74674230  0.69489183  0.25439050    -0.89100
O384        O  0.61304126  0.80668185  0.22758624    -0.89800
O385        O  0.65241347  0.79660448  0.30261070    -0.78600
O386        O  0.69509655  0.73769136  0.21355894    -1.00700
C387        C  0.74366720  0.76151286  0.33899018     1.22400
O388        O  0.72714240  0.83340007  0.28273508    -1.35600
Mn389      Mn  0.74626479  0.82735405  0.22948326     1.82100
O390        O  0.71364023  0.75869406  0.32538521    -0.77700
O391        O  0.79025635  0.71628067  0.28659988    -0.87100
C392        C  0.81463666  0.84113489  0.26653869     1.13500
C393        C  0.76921233  0.69186501  0.27872688     1.08300
O394        O  0.73513648  0.87821499  0.20684419    -0.78600
O395        O  0.75066919  0.77461813  0.25052122    -1.32300
O396        O  0.68841273  0.87887470  0.23568164    -0.97800
C397        C  0.70447193  0.85818710  0.36465013     1.07000
Mn398      Mn  0.79458822  0.77023968  0.28264154     1.48600
O399        O  0.69329900  0.87645520  0.33952368    -0.87000
Mn400      Mn  0.65216287  0.84451535  0.22959206     1.49600
O401        O  0.68822181  0.81922462  0.14728355    -0.90900
C402        C  0.67403038  0.72406099  0.23275730     1.20200
C403        C  0.66678436  0.84459834  0.14916853     1.12200
Mn404      Mn  0.70089380  0.78340941  0.27613889     1.81000
O405        O  0.80018299  0.82087097  0.28636965    -0.96100
Mn406      Mn  0.68920060  0.77646792  0.18146571     1.49300
C407        C  0.61021686  0.78470491  0.20298141     1.08700
Mn408      Mn  0.76574386  0.83106914  0.32220078     1.49900
C409        C  0.76525737  0.91097840  0.30320231     1.11600
O410        O  0.65376457  0.84690616  0.28045789    -1.01900
O411        O  0.82746009  0.76639539  0.23923078    -0.91500
C412        C  0.63940167  0.82692810  0.30058304     1.22900
O413        O  0.76469195  0.77985273  0.32343247    -1.02300
O414        O  0.79832660  0.72744065  0.20756223    -0.89700
O415        O  0.77531029  0.88467184  0.32075329    -0.89300
O416        O  0.64918687  0.85128112  0.17633069    -0.89300
Mn417      Mn  0.74555296  0.73308292  0.21480865     1.47900
O418        O  0.79834108  0.84814117  0.23868472    -0.77800
C419        C  0.70583004  0.89227943  0.21290382     1.16000
O420        O  0.67316745  0.73534895  0.26379113    -0.76500
O421        O  0.76723826  0.81548793  0.17777234    -0.76100
Mn422      Mn  0.69459515  0.87728613  0.28597852     1.51100
O423        O  0.72941625  0.83654893  0.36229499    -0.88500
O424        O  0.73965290  0.76794881  0.17774245    -0.96000
O425        O  0.73688273  0.91128680  0.28609146    -0.91000
C426        C  0.76131129  0.78628184  0.16332177     1.13800
C427        C  0.63578302  0.92797888  0.03000843     0.80800
N428        N  0.65094967  0.91461364  0.00105428    -0.77500
C429        C  0.63532236  0.91747550  0.96964088     0.83200
N430        N  0.60391598  0.93349061  0.96697579    -0.77500
C431        C  0.58857305  0.94715977  0.99560486     0.83300
N432        N  0.60431829  0.94409899  0.02706150    -0.79200
C433        C  0.82262369  0.72730982  0.97162924     0.80800
N434        N  0.84118762  0.69672130  0.97238491    -0.77500
C435        C  0.85101001  0.68148785  0.00309508     0.83200
N436        N  0.84132326  0.69725221  0.03377869    -0.77500
C437        C  0.82311551  0.72828800  0.03381039     0.83300
N438        N  0.81402819  0.74297485  0.00254851    -0.79200
C439        C  0.84762594  0.08294242  0.66729311     0.80800
N440        N  0.86323308  0.08173974  0.63561901    -0.77500
C441        C  0.86389225  0.05202647  0.61674385     0.83200
N442        N  0.84903648  0.02261040  0.62977994    -0.77500
C443        C  0.83424948  0.02311084  0.66208035     0.83300
N444        N  0.83326691  0.05335229  0.68038236    -0.79200
C445        C  0.65034894  0.08075582  0.85230277     0.80800
N446        N  0.61841323  0.08291545  0.86846310    -0.77500
C447        C  0.60087336  0.05335122  0.87857581     0.83200
N448        N  0.61539551  0.02148742  0.87133237    -0.77500
C449        C  0.64713594  0.01869135  0.85495457     0.83300
N450        N  0.66426078  0.04860600  0.84558992    -0.79200
C451        C  0.97852581  0.89848076  0.65638229     0.80800
N452        N  0.94858311  0.89649477  0.67517258    -0.77500
C453        C  0.91863663  0.91137554  0.66332320     0.83200
N454        N  0.91857542  0.92811964  0.63156629    -0.77500
C455        C  0.94890135  0.93082107  0.61287439     0.83300
N456        N  0.97824762  0.91597798  0.62565093    -0.79200
C457        C  0.95421946  0.72592887  0.86329764     0.80800
N458        N  0.95566121  0.69689665  0.88341779    -0.77500
C459        C  0.98637060  0.68385260  0.89494378     0.83200
N460        N  0.01668971  0.70021198  0.88610201    -0.77500
C461        C  0.01540110  0.73035711  0.86703689     0.83300
N462        N  0.98434646  0.74247262  0.85517187    -0.79200
N463        N  0.94906766  0.97990588  0.44907084    -0.05600
N464        N  0.93850584  0.96493705  0.41956118    -0.57700
N465        N  0.97507079  0.97281432  0.53463146    -0.05300
N466        N  0.98303863  0.95593900  0.56359398    -0.59800
N467        N  0.94100799  0.97594083  0.53172142    -0.04900
N468        N  0.92511094  0.96144571  0.55900864    -0.57700
N469        N  0.98308099  0.97653264  0.45251878    -0.04500
N470        N  0.99627660  0.95947941  0.42533804    -0.60200
C471        C  0.96827545  0.95218189  0.40480977     0.96600
C472        C  0.95176409  0.94888631  0.57863602     0.96400
N473        N  0.04017464  0.06011398  0.54528000    -0.05800
N474        N  0.05546586  0.06925019  0.57467390    -0.58300
N475        N  0.04302484  0.03073282  0.46208167    -0.03900
N476        N  0.05406822  0.01964112  0.43141276    -0.59500
N477        N  0.04590480  0.06504476  0.46417501    -0.05800
N478        N  0.05876832  0.07779574  0.43484253    -0.58500
N479        N  0.03715866  0.02580013  0.54348341    -0.03500
N480        N  0.05042215  0.01105633  0.57190036    -0.59600
Mn481      Mn  0.01071927  0.00038830  0.49837779     1.18400
C482        C  0.06164493  0.03861290  0.59111650     0.98700
C483        C  0.06367526  0.04922509  0.41483645     0.99300
N484        N  0.89241793  0.03965264  0.53052789    -0.05800
N485        N  0.87932610  0.02609700  0.55941559    -0.62100
N486        N  0.90171202  0.08018421  0.45243801    -0.04600
N487        N  0.88968177  0.09552557  0.42384391    -0.62800
N488        N  0.89899075  0.04591095  0.44985444    -0.05300
N489        N  0.88518257  0.03734901  0.41962015    -0.62400
N490        N  0.89611257  0.07380271  0.53373257    -0.04200
N491        N  0.88575927  0.08390146  0.56496713    -0.63100
Mn492      Mn  0.91901952  0.00959784  0.48977911     1.10700
C493        C  0.87539165  0.05394154  0.58051994     0.99900
C494        C  0.87947063  0.06835331  0.40370219     1.00000
N495        N  0.99746860  0.12961082  0.46311962    -0.05300
N496        N  0.01307741  0.14435753  0.43576610    -0.60700
N497        N  0.95572543  0.12890292  0.54272360    -0.04600
N498        N  0.94279005  0.14659903  0.56962686    -0.57400
N499        N  0.98979924  0.12574776  0.54563269    -0.06000
N500        N  0.00069419  0.14138226  0.57459004    -0.60300
N501        N  0.96337901  0.13291814  0.46074751    -0.04900
N502        N  0.95512139  0.14998354  0.43195419    -0.57500
Mn503      Mn  0.01969352  0.09585934  0.50491910     1.20200
Mn504      Mn  0.92804454  0.10497950  0.49739131     1.10100
Cl505      Cl  0.96939220  0.05270635  0.49762989    -0.85400
C506        C  0.98622211  0.15720601  0.41656035     0.96900
C507        C  0.97109811  0.15435682  0.58948318     0.96700
N508        N  0.94544301  0.50748631  0.06933385    -0.05600
N509        N  0.92972193  0.47925944  0.08188025    -0.57700
N510        N  0.98654686  0.58466156  0.08002509    -0.05300
N511        N  0.00000690  0.61259277  0.09518779    -0.59800
N512        N  0.95238642  0.58801317  0.07694375    -0.04900
N513        N  0.94211554  0.61817972  0.08986325    -0.57700
N514        N  0.97968808  0.50417757  0.07143419    -0.04500
N515        N  0.98779084  0.47375612  0.08540981    -0.60200
C516        C  0.95651849  0.45850403  0.09177195     0.96600
C517        C  0.97197060  0.63305023  0.10116773     0.96400
N518        N  0.05232826  0.59059170  0.99583480    -0.05800
N519        N  0.06877391  0.61988421  0.98798441    -0.58300
N520        N  0.04538032  0.50428994  0.01975471    -0.03900
N521        N  0.06072020  0.47452954  0.02920776    -0.59500
N522        N  0.04831462  0.50869707  0.98582229    -0.05800
N523        N  0.06538250  0.48198108  0.97161402    -0.58500
N524        N  0.04961792  0.58710041  0.02985819    -0.03500
N525        N  0.06402132  0.61440335  0.04584500    -0.59600
Mn526      Mn  0.01619642  0.54448116  0.05157894     1.18400
C527        C  0.07609085  0.63456472  0.01925155     0.98700
C528        C  0.07318922  0.46065674  0.99888045     0.99300
N529        N  0.89671344  0.60014542  0.01759648    -0.05800
N530        N  0.87922242  0.62728923  0.03066085    -0.62100
N531        N  0.89569286  0.52049483  0.97461942    -0.04600
N532        N  0.88140491  0.49307205  0.95879570    -0.62800
N533        N  0.89245537  0.51770138  0.00864080    -0.05300
N534        N  0.87586358  0.48853232  0.01668345    -0.62400
N535        N  0.89949137  0.60317078  0.98352015    -0.04200
N536        N  0.88390848  0.63230789  0.97281834    -0.63100
Mn537      Mn  0.92073296  0.55342479  0.04423079     1.10700
C538        C  0.87123328  0.64738957  0.00241013     0.99900
C539        C  0.86895632  0.47338125  0.98549498     1.00000
N540        N  0.99363535  0.52031190  0.92695729    -0.05300
N541        N  0.00469256  0.49061428  0.91336667    -0.60700
N542        N  0.96434492  0.60324087  0.93298758    -0.04600
N543        N  0.95487773  0.63318885  0.91903285    -0.57400
N544        N  0.99865136  0.60132321  0.93519661    -0.06000
N545        N  0.01312738  0.63022698  0.92255579    -0.60300
N546        N  0.95933469  0.52251452  0.92492671    -0.04900
N547        N  0.94647501  0.49419236  0.91011444    -0.57500
Mn548      Mn  0.02427929  0.55541164  0.95990063     1.20200
Mn549      Mn  0.92897379  0.56262645  0.95280159     1.10100
Cl550      Cl  0.97257853  0.55397222  0.00221337    -0.85400
C551        C  0.97501160  0.47475098  0.90305356     0.96900
C552        C  0.98532759  0.64981173  0.91271062     0.96700
N553        N  0.44003883  0.13364632  0.98210121    -0.05600
N554        N  0.41214558  0.14905518  0.96905949    -0.57700
N555        N  0.51774452  0.12272840  0.02216479    -0.05300
N556        N  0.54635931  0.13445656  0.03757399    -0.59800
N557        N  0.52058599  0.12557632  0.98797925    -0.04900
N558        N  0.55110909  0.13919890  0.97956823    -0.57700
N559        N  0.43697467  0.13025760  0.01626815    -0.04500
N560        N  0.40691293  0.14316355  0.02687015    -0.60200
C561        C  0.39184984  0.15487757  0.99727501     0.96600
C562        C  0.56685935  0.14460467  0.01066464     0.96400
N563        N  0.50499316  0.02702306  0.07177661    -0.05800
N564        N  0.53239000  0.01080953  0.08566624    -0.58300
N565        N  0.42596287  0.07020863  0.07101609    -0.03900
N566        N  0.39895601  0.08342050  0.08849363    -0.59500
N567        N  0.42271086  0.03611391  0.06803716    -0.05800
N568        N  0.39353008  0.02547375  0.08357261    -0.58500
N569        N  0.50819756  0.06107038  0.07476398    -0.03500
N570        N  0.53773115  0.06877110  0.09076208    -0.59600
Mn571      Mn  0.47222110  0.09716969  0.04709795     1.18400
C572        C  0.55256150  0.03732318  0.09760736     0.98700
C573        C  0.37875305  0.05521032  0.09632216     0.99300
N574        N  0.52072041  0.07497181  0.92288842    -0.05800
N575        N  0.55067188  0.08538525  0.90858299    -0.62100
N576        N  0.43504149  0.04937008  0.91581353    -0.04600
N577        N  0.40592486  0.04117035  0.89937422    -0.62800
N578        N  0.43792608  0.08351182  0.91876062    -0.05300
N579        N  0.41043738  0.09921299  0.90446210    -0.62400
N580        N  0.51725027  0.04087713  0.91983890    -0.04200
N581        N  0.54489309  0.02751714  0.90356917    -0.63100
Mn582      Mn  0.48019725  0.10572429  0.95205193     1.10700
C583        C  0.56569468  0.05551176  0.89646352     0.99900
C584        C  0.39076649  0.07231501  0.89225522     1.00000
N585        N  0.42296131  0.98529896  0.00323874    -0.05300
N586        N  0.39340284  0.97051936  0.01276305    -0.60700
N587        N  0.50625286  0.98091286  0.97416724    -0.04600
N588        N  0.53696334  0.96928967  0.96363396    -0.57400
N589        N  0.50347737  0.97824700  0.00834326    -0.06000
N590        N  0.53232026  0.96497517  0.02162367    -0.60300
N591        N  0.42494115  0.98764226  0.96898488    -0.04900
N592        N  0.39632814  0.97432264  0.95458287    -0.57500
Mn593      Mn  0.46310474  0.00546907  0.03853996     1.20200
Mn594      Mn  0.47073534  0.01355623  0.94351407     1.10100
Cl595      Cl  0.47144750  0.05552895  0.99523163    -0.85400
C596        C  0.37698323  0.96384408  0.98241137     0.96900
C597        C  0.55275811  0.95958680  0.99351995     0.96700
O598        O  0.75332923  0.69489223  0.73910811    -0.87600
C599        C  0.66554534  0.82127984  0.86332056     1.12400
O600        O  0.74884856  0.77131363  0.75173011    -1.35400
O601        O  0.63686534  0.75093065  0.82002532    -0.89100
O602        O  0.79662957  0.72131439  0.71143332    -0.89800
O603        O  0.70916994  0.75524271  0.67856859    -0.78600
O604        O  0.70035456  0.72387743  0.78665041    -1.00700
C605        C  0.63357919  0.81900269  0.71169127     1.22400
O606        O  0.71760921  0.82983016  0.72563286    -1.35600
Mn607      Mn  0.74107867  0.82169643  0.77660321     1.82100
O608        O  0.64681702  0.78920003  0.70622164    -0.77700
O609        O  0.61198059  0.78937986  0.78412589    -0.87100
C610        C  0.69879572  0.88444121  0.79999832     1.13500
C611        C  0.61124185  0.76122511  0.80163955     1.08300
O612        O  0.78991499  0.84907272  0.76494031    -0.78600
O613        O  0.69034213  0.79680738  0.78250541    -1.32300
O614        O  0.78870107  0.82615641  0.71459480    -0.97800
C615        C  0.68333389  0.85650243  0.64827419     1.07000
Mn616      Mn  0.64725515  0.83065980  0.78468388     1.48600
O617        O  0.70756342  0.83388162  0.64688711    -0.87000
Mn618      Mn  0.79142822  0.77421394  0.71733849     1.49600
O619        O  0.80463615  0.72886962  0.78804723    -0.90900
C620        C  0.68029038  0.70918480  0.76703900     1.20200
C621        C  0.82958932  0.74973141  0.78167702     1.12200
Mn622      Mn  0.69679489  0.77693089  0.72966057     1.81000
O623        O  0.67885660  0.87067980  0.77948831    -0.96100
Mn624      Mn  0.75085781  0.72705706  0.78347521     1.49300
C625        C  0.77483496  0.69678995  0.71385793     1.08700
Mn626      Mn  0.68252551  0.87184229  0.72858298     1.49900
C627        C  0.74373131  0.91208856  0.70216635     1.11600
O628        O  0.75738646  0.78155239  0.67915926    -1.01900
O629        O  0.64683598  0.83224287  0.83843712    -0.91500
C630        C  0.73862549  0.76053819  0.66440198     1.22900
O631        O  0.64711509  0.83644044  0.73434218    -1.02300
O632        O  0.68630711  0.79560072  0.86132580    -0.89700
O633        O  0.72171431  0.90986355  0.72687886    -0.89300
O634        O  0.82773400  0.77300187  0.75805296    -0.89300
Mn635      Mn  0.69085579  0.75850346  0.82220122     1.47900
O636        O  0.72864914  0.87057896  0.80263980    -0.77800
C637        C  0.80176364  0.84798767  0.73404693     1.16000
O638        O  0.67422915  0.72510968  0.73873293    -0.76500
O639        O  0.76455073  0.80801992  0.82608974    -0.76100
Mn640      Mn  0.74941941  0.83264354  0.68132035     1.51100
O641        O  0.67708290  0.87467320  0.67515227    -0.88500
O642        O  0.74230425  0.75706812  0.82451013    -0.96000
O643        O  0.75086828  0.88690648  0.68193338    -0.91000
C644        C  0.76154908  0.77778831  0.83946365     1.13800
C645        C  0.33651687  0.87541650  0.54879876     0.80800
N646        N  0.32894886  0.86093942  0.51735657    -0.77500
C647        C  0.33934928  0.87652816  0.48738497     0.83200
N648        N  0.35697867  0.90697393  0.48935257    -0.77500
C649        C  0.36428527  0.92232245  0.52016272     0.83300
N650        N  0.35346850  0.90689292  0.55036802    -0.79200
C651        C  0.12592261  0.70336743  0.51153317     0.80800
N652        N  0.09441539  0.68741608  0.51012392    -0.77500
C653        C  0.08022264  0.67703149  0.47951454     0.83200
N654        N  0.09794369  0.68339446  0.44908756    -0.77500
C655        C  0.13030419  0.69898787  0.45031126     0.83300
N656        N  0.14372968  0.70891175  0.48150930    -0.79200
C657        C  0.80703377  0.40277665  0.48773635     0.80800
N658        N  0.78847575  0.39997763  0.51781259    -0.77500
C659        C  0.80076117  0.41414411  0.54798626     0.83200
N660        N  0.83266294  0.43072318  0.54799739    -0.77500
C661        C  0.85103320  0.43414470  0.51759956     0.83300
N662        N  0.83779359  0.42025051  0.48803893    -0.79200
C663        C  0.60539549  0.22497860  0.51636001     0.80800
N664        N  0.61323802  0.24138910  0.48599930    -0.77500
C665        C  0.60220261  0.22812342  0.45503317     0.83200
N666        N  0.58381257  0.19751947  0.45429431    -0.77500
C667        C  0.57547205  0.18124817  0.48465037     0.83300
N668        N  0.58640626  0.19511892  0.51518047    -0.79200
C669        C  0.60727564  0.88846299  0.47091561     0.80800
N670        N  0.61090613  0.87265240  0.50216442    -0.77500
C671        C  0.59742992  0.88713804  0.53137422     0.83200
N672        N  0.58013351  0.91801234  0.52897155    -0.77500
C673        C  0.57604727  0.93397242  0.49774334     0.83300
N674        N  0.58986574  0.91929171  0.46874257    -0.79200
C675        C  0.79254305  0.69886533  0.53357026     0.80800
N676        N  0.82374120  0.68112839  0.53239835    -0.77500
C677        C  0.83858144  0.67192114  0.50112312     0.83200
N678        N  0.82244994  0.68196948  0.47104409    -0.77500
C679        C  0.79167916  0.70009741  0.47153228     0.83300
N680        N  0.77686159  0.70830283  0.50293716    -0.79200
C681        C  0.44216566  0.42180963  0.83758030     0.80800
N682        N  0.44369250  0.44024382  0.86774059    -0.77500
C683        C  0.47449016  0.44485772  0.88422238     0.83200
N684        N  0.50388803  0.43064683  0.87088932    -0.77500
C685        C  0.50249630  0.41192535  0.84101045     0.83300
N686        N  0.47169751  0.40748727  0.82459820    -0.79200
C687        C  0.50164084  0.22668884  0.64811505     0.80800
N688        N  0.50093596  0.19595198  0.62987642    -0.77500
C689        C  0.47019785  0.18084918  0.61996743     0.83200
N690        N  0.43946028  0.19685806  0.62920110    -0.77500
C691        C  0.43950067  0.22815129  0.64686328     0.83300
N692        N  0.47074612  0.24265348  0.65622554    -0.79200
C693        C  0.44321138  0.87597235  0.35238704     0.80800
N694        N  0.44075223  0.90661100  0.37074825    -0.77500
C695        C  0.47017130  0.92404603  0.38126367     0.83200
N696        N  0.50219407  0.91039065  0.37287381    -0.77500
C697        C  0.50518984  0.87960209  0.35478604     0.83300
N698        N  0.47542846  0.86293523  0.34445452    -0.79200
C699        C  0.50105092  0.69330818  0.16283931     0.80800
N700        N  0.50157495  0.67905133  0.13033553    -0.77500
C701        C  0.47217988  0.66448080  0.11706486     0.83200
N702        N  0.44231922  0.66509615  0.13594962    -0.77500
C703        C  0.44139820  0.67964147  0.16822194     0.83300
N704        N  0.47102949  0.69356564  0.18136963    -0.79200
C705        C  0.79062892  0.50481466  0.36708468     0.80800
N706        N  0.77764952  0.53473378  0.35305702    -0.77500
C707        C  0.79447337  0.56555448  0.35773084     0.83200
N708        N  0.82452044  0.56604454  0.37642030    -0.77500
C709        C  0.83801523  0.53649110  0.39033765     0.83300
N710        N  0.82133748  0.50556909  0.38514368    -0.79200
C711        C  0.61025293  0.60405952  0.16642033     0.80800
N712        N  0.62064753  0.57316755  0.18061992    -0.77500
C713        C  0.61629790  0.54266401  0.16312248     0.83200
N714        N  0.60153217  0.54339434  0.13099694    -0.77500
C715        C  0.59097550  0.57367598  0.11607515     0.83300
N716        N  0.59557313  0.60429448  0.13375532    -0.79200
C717        C  0.48448523  0.68478009  0.82064951     0.80800
N718        N  0.45341641  0.69282354  0.80585759    -0.77500
C719        C  0.42301568  0.68480672  0.82223387     0.83200
N720        N  0.42374546  0.66928019  0.85437802    -0.77500
C721        C  0.45497334  0.66059717  0.86901487     0.83300
N722        N  0.48488028  0.66871175  0.85211907    -0.79200
C723        C  0.45767411  0.89050150  0.64635579     0.80800
N724        N  0.45817813  0.92231484  0.63089267    -0.77500
C725        C  0.48832748  0.93734790  0.62023235     0.83200
N726        N  0.51916934  0.92020338  0.62563030    -0.77500
C727        C  0.51899105  0.88761604  0.64067518     0.83300
N728        N  0.48822492  0.87327110  0.65116767    -0.79200
C729        C  0.79872358  0.58269032  0.62355536     0.80800
N730        N  0.78516814  0.55214893  0.63505086    -0.77500
C731        C  0.80330305  0.52201666  0.63223143     0.83200
N732        N  0.83573411  0.52226348  0.61781797    -0.77500
C733        C  0.84945147  0.55256200  0.60574344     0.83300
N734        N  0.83104806  0.58258448  0.60894332    -0.79200
C735        C  0.61824254  0.57939982  0.82253979     0.80800
N736        N  0.62529768  0.54722153  0.80867881    -0.77500
C737        C  0.61562012  0.51717683  0.82556112     0.83200
N738        N  0.59857086  0.51996754  0.85699520    -0.77500
C739        C  0.59093732  0.55190308  0.87132645     0.83300
N740        N  0.60134451  0.58141683  0.85400867    -0.79200
C741        C  0.33150416  0.50416532  0.83405678     0.80800
N742        N  0.34661403  0.50429261  0.86661170    -0.77500
C743        C  0.35296280  0.53550963  0.88301586     0.83200
N744        N  0.34291471  0.56553802  0.86732499    -0.77500
C745        C  0.32726319  0.56568261  0.83565409     0.83300
N746        N  0.32174087  0.53486966  0.81920024    -0.79200
C747        C  0.14367675  0.60215336  0.62972977     0.80800
N748        N  0.11199981  0.60256081  0.61323269    -0.77500
C749        C  0.09751510  0.57181478  0.60246998     0.83200
N750        N  0.11403897  0.54145443  0.60949109    -0.77500
C751        C  0.14483279  0.54057656  0.62665406     0.83300
N752        N  0.15944458  0.57116571  0.63686530    -0.79200
N753        N  0.01337515  0.47709631  0.48263130    -0.05600
N754        N  0.04041471  0.45988658  0.46903375    -0.57700
N755        N  0.93397902  0.47608215  0.52592264    -0.05300
N756        N  0.90608807  0.46258491  0.54172669    -0.59800
N757        N  0.93094829  0.47311257  0.49189942    -0.04900
N758        N  0.90133161  0.45742388  0.48387631    -0.57700
N759        N  0.01713415  0.48015325  0.51663023    -0.04500
N760        N  0.04672134  0.46482384  0.52667495    -0.60200
C761        C  0.06128101  0.45212217  0.49672636     0.96600
C762        C  0.88598922  0.45086982  0.51503092     0.96400
N763        N  0.93221400  0.57358412  0.57241315    -0.05800
N764        N  0.90138542  0.58395770  0.58371477    -0.58300
N765        N  0.01635658  0.54621142  0.56752828    -0.03900
N766        N  0.04688962  0.53799084  0.58102617    -0.59500
N767        N  0.01323166  0.58048729  0.56524158    -0.05800
N768        N  0.04170685  0.59613368  0.57728785    -0.58500
N769        N  0.93524494  0.53936261  0.57539624    -0.03500
N770        N  0.90637862  0.52599585  0.58889319    -0.59600
Mn771      Mn  0.97622967  0.50959200  0.54773419     1.18400
C772        C  0.88567373  0.55411494  0.59389404     0.98700
C773        C  0.06242278  0.56919484  0.58701282     0.99300
N774        N  0.92054147  0.52628957  0.43093385    -0.05800
N775        N  0.89196613  0.51131610  0.41831674    -0.62100
N776        N  0.99896404  0.56626040  0.42066323    -0.04600
N777        N  0.02734769  0.57911302  0.40583828    -0.62800
N778        N  0.00134376  0.53192599  0.42306210    -0.05300
N779        N  0.03109412  0.52087466  0.40969647    -0.62400
N780        N  0.91816545  0.56059246  0.42832081    -0.04200
N781        N  0.88823217  0.56952294  0.41393264    -0.63100
Mn782      Mn  0.96648436  0.50104293  0.45609675     1.10700
C783        C  0.87211159  0.53871666  0.40788118     0.99900
C784        C  0.04689553  0.55050485  0.39908523     1.00000
N785        N  0.00250579  0.63362491  0.50438831    -0.05300
N786        N  0.03086684  0.65133019  0.51262176    -0.60700
N787        N  0.91738493  0.62543291  0.47940079    -0.04600
N788        N  0.88769985  0.64033771  0.46928664    -0.57400
N789        N  0.92081752  0.62825774  0.51342200    -0.06000
N790        N  0.89357429  0.64497876  0.52705454    -0.60300
N791        N  0.99992358  0.63054608  0.47034267    -0.04900
N792        N  0.02682346  0.64606804  0.45468132    -0.57500
Mn793      Mn  0.96728239  0.60492375  0.53996635     1.20200
Mn794      Mn  0.95832252  0.59651370  0.44836327     1.10100
Cl795      Cl  0.96726334  0.55300817  0.49799553    -0.85400
C796        C  0.04583085  0.65915322  0.48155790     0.96900
C797        C  0.87290571  0.65253214  0.49927221     0.96700
N798        N  0.49832505  0.48839435  0.04603570    -0.05600
N799        N  0.51296281  0.47525871  0.07452657    -0.57700
N800        N  0.45928729  0.47912928  0.96746032    -0.05300
N801        N  0.44658528  0.46531929  0.93864295    -0.59800
N802        N  0.49358864  0.48148032  0.96537785    -0.04900
N803        N  0.50480876  0.46909793  0.93534801    -0.57700
N804        N  0.46402865  0.48609775  0.04814818    -0.04500
N805        N  0.45472899  0.47142796  0.07785839    -0.60200
C806        C  0.48532535  0.46486411  0.09407140     0.96600
C807        C  0.47528237  0.45932408  0.91908053     0.96400
N808        N  0.39291950  0.56245952  0.96214831    -0.05800
N809        N  0.37668041  0.57021056  0.93275059    -0.58300
N810        N  0.39893421  0.53731196  0.04770392    -0.03900
N811        N  0.38283774  0.52685255  0.07661629    -0.59500
N812        N  0.39611147  0.57140845  0.04431642    -0.05800
N813        N  0.37819491  0.58478714  0.07092699    -0.58500
N814        N  0.39577900  0.52836425  0.96538777    -0.03500
N815        N  0.38158605  0.51224214  0.93813845    -0.59600
Mn816      Mn  0.42874346  0.50646984  0.00760258     1.18400
C817        C  0.36952841  0.53875058  0.91800762     0.98700
C818        C  0.36991398  0.55669879  0.09107097     0.99300
N819        N  0.54821846  0.54060945  0.95429126    -0.05800
N820        N  0.56475190  0.52680762  0.92704843    -0.62100
N821        N  0.54934275  0.58328284  0.03338473    -0.04600
N822        N  0.56337078  0.59869822  0.06114311    -0.62800
N823        N  0.55201362  0.54913482  0.03618332    -0.05300
N824        N  0.56796751  0.54060903  0.06544154    -0.62400
N825        N  0.54541823  0.57469452  0.95052834    -0.04200
N826        N  0.56023159  0.58465664  0.92068485    -0.63100
Mn827      Mn  0.52407461  0.51385765  0.00060540     1.10700
C828        C  0.57232536  0.55449641  0.90609593     0.99900
C829        C  0.57511286  0.57160289  0.08081425     1.00000
N830        N  0.45185128  0.63043200  0.03442785    -0.05300
N831        N  0.44124236  0.64191199  0.06510187    -0.60700
N832        N  0.48035938  0.62626493  0.95058471    -0.04600
N833        N  0.48890649  0.63985344  0.92009564    -0.57400
N834        N  0.44610625  0.62379042  0.95332267    -0.06000
N835        N  0.43079674  0.63572456  0.92471903    -0.60300
N836        N  0.48608581  0.63349385  0.03168326    -0.04900
N837        N  0.49918869  0.64727411  0.06046396    -0.57500
Mn838      Mn  0.42075887  0.59819396  0.99849699     1.20200
Mn839      Mn  0.51621464  0.60585612  0.99108415     1.10100
Cl840      Cl  0.47247151  0.55615248  0.99948836    -0.85400
C841        C  0.47092861  0.65237121  0.08091217     0.96900
C842        C  0.45785060  0.64563957  0.90428373     0.96700
N843        N  0.48901843  0.10183170  0.57249446    -0.05600
N844        N  0.50016947  0.13113636  0.58747543    -0.57700
N845        N  0.46278576  0.01700937  0.58100291    -0.05300
N846        N  0.45464525  0.98797001  0.59773852    -0.59800
N847        N  0.49680401  0.01925903  0.57703734    -0.04900
N848        N  0.51253288  0.99165108  0.59099161    -0.57700
N849        N  0.45491094  0.09917735  0.57584035    -0.04500
N850        N  0.44226692  0.12661985  0.59303884    -0.60200
C851        C  0.47075697  0.14657266  0.60029807     0.96600
C852        C  0.48578743  0.97242792  0.60403037     0.96400
N853        N  0.39855535  0.00365641  0.49524975    -0.05800
N854        N  0.38519851  0.97309581  0.48711002    -0.58300
N855        N  0.39409201  0.08799084  0.52181484    -0.03900
N856        N  0.38163779  0.11869526  0.53145592    -0.59500
N857        N  0.39025642  0.08374003  0.48788459    -0.05800
N858        N  0.37497574  0.11128719  0.47398872    -0.58500
N859        N  0.40112095  0.00682608  0.52940890    -0.03500
N860        N  0.38941896  0.97814838  0.54510328    -0.59600
Mn861      Mn  0.42707791  0.05289131  0.55313074     1.18400
C862        C  0.37961707  0.95744081  0.51818620     0.98700
C863        C  0.36971723  0.13269261  0.50136607     0.99300
N864        N  0.54480682  0.01913822  0.51222773    -0.05800
N865        N  0.55790206  0.98988492  0.52494806    -0.62100
N866        N  0.53546180  0.09840210  0.47280721    -0.04600
N867        N  0.54785269  0.12735610  0.45818603    -0.62800
N868        N  0.53859959  0.10021329  0.50700574    -0.05300
N869        N  0.55291860  0.13005109  0.51626206    -0.62400
N870        N  0.54197730  0.01687571  0.47800936    -0.04200
N871        N  0.55326634  0.98620739  0.46694941    -0.63100
Mn872      Mn  0.51865864  0.06038740  0.54289949     1.10700
C873        C  0.56298963  0.96976339  0.49647253     0.99900
C874        C  0.55853717  0.14677386  0.48582125     1.00000
N875        N  0.43893163  0.08487973  0.42382608    -0.05300
N876        N  0.42272306  0.11182742  0.40905777    -0.60700
N877        N  0.48197087  0.00634015  0.42482385    -0.04600
N878        N  0.49540008  0.97938573  0.40757598    -0.57400
N879        N  0.44805964  0.00232859  0.42867164    -0.06000
N880        N  0.43779177  0.97259534  0.41378911    -0.60300
N881        N  0.47295927  0.08810636  0.42042937    -0.04900
N882        N  0.48060966  0.11690053  0.40311658    -0.57500
Mn883      Mn  0.41765293  0.04312465  0.45819361     1.20200
Mn884      Mn  0.50922406  0.05272068  0.44792884     1.10100
Cl885      Cl  0.46811788  0.05239515  0.50051172    -0.85400
C886        C  0.44920266  0.13150245  0.39602012     0.96900
C887        C  0.46766402  0.95833905  0.40065280     0.96700
O888        O  0.14984927  0.39283965  0.27610431    -0.87600
C889        C  0.18191911  0.20106406  0.29665485     1.12400
O890        O  0.19110490  0.33653801  0.23896964    -1.35400
O891        O  0.22127470  0.27820500  0.35083466    -0.89100
O892        O  0.18679314  0.41628348  0.23715819    -0.89800
O893        O  0.26561306  0.37987032  0.25068267    -0.78600
O894        O  0.17982020  0.33245904  0.31281113    -1.00700
C895        C  0.30147259  0.28644049  0.29019037     1.22400
O896        O  0.24947525  0.30543343  0.21358712    -1.35600
Mn897      Mn  0.19711422  0.28336621  0.21881484     1.82100
O898        O  0.29014284  0.31758673  0.29143650    -0.77700
O899        O  0.25002976  0.23312266  0.32744530    -0.87100
C900        C  0.23909114  0.21809170  0.20167411     1.13500
C901        C  0.24302177  0.25322596  0.35267017     1.08300
O902        O  0.17520365  0.29285993  0.16716953    -0.78600
O903        O  0.21767843  0.27886300  0.27149869    -1.32300
O904        O  0.20190004  0.34074744  0.16595130    -0.97800
C905        C  0.33075005  0.33586451  0.19378802     1.07000
Mn906      Mn  0.24883040  0.23394369  0.27364694     1.48600
O907        O  0.30663562  0.34214500  0.17191417    -0.87000
Mn908      Mn  0.19194674  0.37635475  0.20056527     1.49600
O909        O  0.11280942  0.34048360  0.23272154    -0.90900
C910        C  0.19930220  0.35273385  0.32744499     1.20200
C911        C  0.11203492  0.35699215  0.20404186     1.12200
Mn912      Mn  0.24165329  0.33011439  0.26409925     1.81000
O913        O  0.25734014  0.23301503  0.22285945    -0.96100
Mn914      Mn  0.14846470  0.33924552  0.27325838     1.49300
C915        C  0.16726926  0.41810403  0.26384697     1.08700
Mn916      Mn  0.29186529  0.27104364  0.21654101     1.49900
C917        C  0.27649868  0.26811567  0.13943998     1.11600
O918        O  0.24331909  0.37816559  0.20001545    -1.01900
O919        O  0.20654832  0.19947118  0.27437752    -0.91500
C920        C  0.26227425  0.39349424  0.22061129     1.22900
O921        O  0.28828640  0.26733167  0.26815894    -1.02300
O922        O  0.17557671  0.22824874  0.31431873    -0.89700
O923        O  0.29826739  0.26646149  0.16387130    -0.89300
O924        O  0.13803862  0.37409702  0.19236802    -0.89300
Mn925      Mn  0.18233285  0.28152258  0.31299451     1.47900
O926        O  0.20937446  0.23186729  0.19662483    -0.77800
C927        C  0.18194400  0.32101127  0.15117364     1.16000
O928        O  0.22922944  0.35597730  0.31367994    -0.76500
O929        O  0.14635298  0.26042379  0.23084728    -0.76100
Mn930      Mn  0.25241286  0.33751249  0.16960635     1.51100
O931        O  0.32812932  0.31185494  0.21660434    -0.88500
O932        O  0.14742047  0.28884714  0.27766030    -0.96000
O933        O  0.25491116  0.29323426  0.13713993    -0.91000
C934        C  0.13284712  0.26679857  0.26036457     1.13800
C935        C  0.67763484  0.65822457  0.80926185     0.24100
C936        C  0.66485921  0.67436513  0.77840557    -0.24000
C937        C  0.63667793  0.65775481  0.76127132     0.19000
C938        C  0.62155880  0.62665254  0.77502094     0.24100
C939        C  0.63386797  0.61174328  0.80646044    -0.23900
C940        C  0.66220751  0.62788795  0.82303406     0.19000
F941        F  0.67531033  0.61402345  0.85290345    -0.13900
F942        F  0.70512544  0.67201953  0.82690570    -0.16200
F943        F  0.59424096  0.61168492  0.75814599    -0.16200
F944        F  0.62307623  0.67204052  0.73187196    -0.13900
C945        C  0.75231710  0.64200220  0.68584651     0.24100
C946        C  0.77605855  0.66993786  0.68630847    -0.24000
C947        C  0.80108410  0.67263822  0.65923534     0.19000
C948        C  0.80443578  0.64636318  0.63460432     0.24100
C949        C  0.78447481  0.61570516  0.63762716    -0.23900
C950        C  0.75642805  0.61504786  0.66166888     0.19000
F951        F  0.73447084  0.58722398  0.66367505    -0.13900
F952        F  0.72622806  0.63975550  0.70979519    -0.16200
F953        F  0.82963777  0.64980647  0.60982603    -0.16200
F954        F  0.82397703  0.69974641  0.65731980    -0.13900
C955        C  0.58522372  0.81762959  0.66563578     0.24100
C956        C  0.60509597  0.83575438  0.69067397    -0.24000
C957        C  0.59843135  0.87202922  0.69531105     0.19000
C958        C  0.57263391  0.88919141  0.67629179     0.24100
C959        C  0.55159876  0.87080241  0.65291594    -0.23900
C960        C  0.55819732  0.83487892  0.64743634     0.19000
F961        F  0.53803380  0.81640816  0.62490430    -0.13900
F962        F  0.59116294  0.78319177  0.65951604    -0.16200
F963        F  0.56650103  0.92357009  0.68279485    -0.16200
F964        F  0.61660888  0.89146100  0.71876041    -0.13900
C965        C  0.57961979  0.70593162  0.81691344     0.24100
C966        C  0.57935873  0.73923570  0.80109501    -0.24000
C967        C  0.54817699  0.75118117  0.78558421     0.19000
C968        C  0.51737258  0.73179216  0.78889001     0.24100
C969        C  0.51735949  0.69990607  0.80733195    -0.23900
C970        C  0.54922324  0.68622304  0.81918404     0.19000
F971        F  0.55065937  0.65450350  0.83511198    -0.13900
F972        F  0.60885963  0.69279795  0.83193875    -0.16200
F973        F  0.48724432  0.74569753  0.77639312    -0.16200
F974        F  0.54676628  0.78257352  0.76905280    -0.13900
C975        C  0.73216393  0.71807215  0.61234110     0.24100
C976        C  0.75126160  0.74389347  0.63059299    -0.24000
C977        C  0.78420660  0.75363964  0.61648355     0.19000
C978        C  0.79754361  0.73809518  0.58597437     0.24100
C979        C  0.77844949  0.71276314  0.56763361    -0.23900
C980        C  0.74541275  0.70303131  0.58108566     0.19000
F981        F  0.72613772  0.67851078  0.56424457    -0.13900
F982        F  0.70076220  0.70718855  0.62473733    -0.16200
F983        F  0.82913294  0.74867436  0.57372444    -0.16200
F984        F  0.80415080  0.77835494  0.63228567    -0.13900
C985        C  0.65145957  0.83623815  0.59517778     0.24100
C986        C  0.66043147  0.86296901  0.61851286    -0.24000
C987        C  0.64430668  0.89590078  0.61568213     0.19000
C988        C  0.62009571  0.90229117  0.58977921     0.24100
C989        C  0.61257154  0.87640096  0.56487538    -0.23900
C990        C  0.62756749  0.84288396  0.56849945     0.19000
F991        F  0.62007874  0.81698546  0.54544885    -0.13900
F992        F  0.66567380  0.80384594  0.59821734    -0.16200
F993        F  0.60641739  0.93498937  0.58770512    -0.16200
F994        F  0.65288171  0.92269696  0.63736368    -0.13900
C995        C  0.89273640  0.71184965  0.84694133     0.24100
C996        C  0.92126869  0.73498830  0.84509197    -0.24000
C997        C  0.91895663  0.76430563  0.82271858     0.19000
C998        C  0.88918552  0.76963302  0.80211752     0.24100
C999        C  0.86142672  0.74549750  0.80315250    -0.23900
C1000       C  0.86379140  0.71661511  0.82593929     0.19000
F1001       F  0.83856892  0.69166617  0.82738508    -0.13900
F1002       F  0.89296178  0.68324750  0.86796418    -0.16200
F1003       F  0.88786173  0.79812613  0.78098728    -0.16200
F1004       F  0.94561487  0.78761475  0.82021893    -0.13900
C1005       C  0.88414663  0.90281715  0.71918331     0.24100
C1006       C  0.88576092  0.90319857  0.68222331    -0.24000
C1007       C  0.85815080  0.88877255  0.66342826     0.19000
C1008       C  0.83108302  0.87177187  0.68064928     0.24100
C1009       C  0.82940254  0.87035205  0.71780500    -0.23900
C1010       C  0.85576639  0.88709401  0.73682324     0.19000
F1011       F  0.85547516  0.88596511  0.77221709    -0.13900
F1012       F  0.91067608  0.91656795  0.73816270    -0.16200
F1013       F  0.80774409  0.85462597  0.66018459    -0.16200
F1014       F  0.85902239  0.88771779  0.62797714    -0.13900
C1015       C  0.69769425  0.97762444  0.83878561     0.24100
C1016       C  0.66152206  0.98330620  0.84447705    -0.24000
C1017       C  0.63875971  0.95507638  0.83800392     0.19000
C1018       C  0.65124855  0.92316642  0.82473022     0.24100
C1019       C  0.68723430  0.91752807  0.81832704    -0.23900
C1020       C  0.71037358  0.94508473  0.82631886     0.19000
F1021       F  0.74510868  0.94126936  0.82035037    -0.13900
F1022       F  0.72094831  0.00369475  0.84499256    -0.16200
F1023       F  0.62750792  0.89791468  0.81720932    -0.16200
F1024       F  0.60378874  0.95875252  0.84267720    -0.13900
C1025       C  0.78789618  0.98015431  0.64902678     0.24100
C1026       C  0.81129161  0.99458323  0.67321355    -0.24000
C1027       C  0.80921988  0.98470732  0.70854839     0.19000
C1028       C  0.78493009  0.95948001  0.71920475     0.24100
C1029       C  0.76229964  0.94451497  0.69464040    -0.23900
C1030       C  0.76352372  0.95551620  0.65972630     0.19000
F1031       F  0.74167103  0.94132108  0.63565908    -0.13900
F1032       F  0.78797922  0.99048830  0.61510869    -0.16200
F1033       F  0.78497195  0.94816174  0.75277918    -0.16200
F1034       F  0.83141534  0.99868383  0.73238034    -0.13900
C1035       C  0.78928509  0.78987186  0.89941790     0.24100
C1036       C  0.77930333  0.76632401  0.87285375    -0.24000
C1037       C  0.78446333  0.73025786  0.87924721     0.19000
C1038       C  0.79955328  0.71816893  0.91039861     0.24100
C1039       C  0.80890940  0.74141685  0.93734265    -0.23900
C1040       C  0.80338343  0.77756684  0.93139994     0.19000
F1041       F  0.81173255  0.80114133  0.95651049    -0.13900
F1042       F  0.78408372  0.82471026  0.89511861    -0.16200
F1043       F  0.80344078  0.68314152  0.91468566    -0.16200
F1044       F  0.77435109  0.70610080  0.85535253    -0.13900
C1045       C  0.67772442  0.89295638  0.92718364     0.24100
C1046       C  0.64487668  0.89221439  0.94325013    -0.24000
C1047       C  0.62155976  0.86464569  0.93676475     0.19000
C1048       C  0.63021291  0.83893223  0.91287970     0.24100
C1049       C  0.66224353  0.84049690  0.89545951    -0.23900
C1050       C  0.68631506  0.86717117  0.90292468     0.19000
F1051       F  0.71682595  0.86953183  0.88496321    -0.13900
F1052       F  0.70055212  0.91929764  0.93385886    -0.16200
F1053       F  0.60657564  0.81357669  0.90516292    -0.16200
F1054       F  0.59032204  0.86274349  0.95356140    -0.13900
C1055       C  0.75795884  0.62716068  0.28853745     0.24100
C1056       C  0.77201828  0.65928898  0.29973157    -0.24000
C1057       C  0.79068067  0.66015676  0.33147006     0.19000
C1058       C  0.79561113  0.63015851  0.35112569     0.24100
C1059       C  0.78329308  0.59772618  0.33927822    -0.23900
C1060       C  0.76381078  0.59653214  0.30799401     0.19000
F1061       F  0.75203610  0.56561327  0.29515990    -0.13900
F1062       F  0.74022606  0.62494011  0.25796017    -0.16200
F1063       F  0.81358025  0.63300408  0.38154879    -0.16200
F1064       F  0.80555264  0.68997350  0.34343302    -0.13900
C1065       C  0.62285758  0.63878756  0.22140333     0.24100
C1066       C  0.61988493  0.63711926  0.18459290    -0.24000
C1067       C  0.63131336  0.66573195  0.16488901     0.19000
C1068       C  0.64786000  0.69386837  0.18094421     0.24100
C1069       C  0.65204626  0.69544103  0.21771130    -0.23900
C1070       C  0.63831308  0.66796337  0.23784180     0.19000
F1071       F  0.64212650  0.66804543  0.27303900    -0.13900
F1072       F  0.61185647  0.61163288  0.24143408    -0.16200
F1073       F  0.66183290  0.71856553  0.15965146    -0.16200
F1074       F  0.62959896  0.66523261  0.12949065    -0.13900
C1075       C  0.56637205  0.76598323  0.16083708     0.24100
C1076       C  0.57746481  0.76698188  0.19569490    -0.24000
C1077       C  0.56290259  0.74401361  0.22020688     0.19000
C1078       C  0.53839474  0.71915446  0.20945563     0.24100
C1079       C  0.52891761  0.71685799  0.17404062    -0.23900
C1080       C  0.54246856  0.74101218  0.15001692     0.19000
F1081       F  0.53199414  0.74103430  0.11616537    -0.13900
F1082       F  0.58005015  0.78838423  0.13689263    -0.16200
F1083       F  0.52470761  0.69670070  0.23329520    -0.16200
F1084       F  0.57410807  0.74413543  0.25379716    -0.13900
C1085       C  0.60068970  0.87514526  0.32428368     0.24100
C1086       C  0.60636939  0.83894841  0.31877460    -0.24000
C1087       C  0.57886728  0.81597136  0.32744780     0.19000
C1088       C  0.54636197  0.82893629  0.33964318     0.24100
C1089       C  0.54057206  0.86526207  0.34428879    -0.23900
C1090       C  0.56866302  0.88795755  0.33708143     0.19000
F1091       F  0.56468692  0.92305972  0.34059884    -0.13900
F1092       F  0.62606712  0.89869718  0.31643617    -0.16200
F1093       F  0.52042751  0.80577731  0.34677191    -0.16200
F1094       F  0.58275459  0.78104208  0.32259280    -0.13900
C1095       C  0.63908902  0.84429427  0.43509914     0.24100
C1096       C  0.63246965  0.87937706  0.44389870    -0.24000
C1097       C  0.65434532  0.90591973  0.43105635     0.19000
C1098       C  0.68110085  0.89784346  0.40818235     0.24100
C1099       C  0.68610762  0.86329471  0.39728796    -0.23900
C1100       C  0.66574555  0.83626968  0.41145452     0.19000
F1101       F  0.67012969  0.80273626  0.40064084    -0.13900
F1102       F  0.61914247  0.81816391  0.44854227    -0.16200
F1103       F  0.70109785  0.92409170  0.39498101    -0.16200
F1104       F  0.65035863  0.93972434  0.44119333    -0.13900
C1105       C  0.78933668  0.74907847  0.38511233     0.24100
C1106       C  0.75434168  0.74546798  0.37356244    -0.24000
C1107       C  0.73095797  0.72730044  0.39573027     0.19000
C1108       C  0.74249739  0.71290050  0.42789003     0.24100
C1109       C  0.77784871  0.71548623  0.43818922    -0.23900
C1110       C  0.80084354  0.73389242  0.41632519     0.19000
F1111       F  0.83481139  0.73804744  0.42564768    -0.13900
F1112       F  0.81326558  0.76677910  0.36577442    -0.16200
F1113       F  0.71926838  0.69583155  0.44857969    -0.16200
F1114       F  0.69691508  0.72371330  0.38656720    -0.13900
C1115       C  0.62220050  0.90926218  0.09048111     0.24100
C1116       C  0.64723338  0.91441407  0.06412353    -0.24000
C1117       C  0.68045679  0.89877148  0.06765701     0.19000
C1118       C  0.68716443  0.87572964  0.09518646     0.24100
C1119       C  0.66079969  0.86817050  0.11950370    -0.23900
C1120       C  0.62858479  0.88584868  0.11725686     0.19000
F1121       F  0.60226393  0.87940953  0.14022509    -0.13900
F1122       F  0.59020065  0.92453679  0.08918559    -0.16200
F1123       F  0.71923411  0.86084144  0.09796152    -0.16200
F1124       F  0.70595697  0.90467247  0.04368521    -0.13900
C1125       C  0.79604236  0.79447093  0.10578850     0.24100
C1126       C  0.77874960  0.77277038  0.13018798    -0.24000
C1127       C  0.77713481  0.73654121  0.12227916     0.19000
C1128       C  0.79290583  0.72247914  0.09219266     0.24100
C1129       C  0.80955658  0.74398291  0.06754046    -0.23900
C1130       C  0.81062085  0.78037242  0.07461351     0.19000
F1131       F  0.82601887  0.80237194  0.05142306    -0.13900
F1132       F  0.79784146  0.82946395  0.11141045    -0.16200
F1133       F  0.79054605  0.68751580  0.08651521    -0.16200
F1134       F  0.76020269  0.71404579  0.14389159    -0.13900
C1135       C  0.68838600  0.96404285  0.14450776     0.24100
C1136       C  0.65307496  0.97224013  0.15147025    -0.24000
C1137       C  0.63588284  0.95427778  0.17817078     0.19000
C1138       C  0.65352591  0.92955820  0.19833872     0.24100
C1139       C  0.68910239  0.92094745  0.19180457    -0.23900
C1140       C  0.70606191  0.93815512  0.16402907     0.19000
F1141       F  0.73970714  0.93035488  0.15603939    -0.13900
F1142       F  0.70583624  0.98143088  0.11899053    -0.16200
F1143       F  0.63517586  0.91407217  0.22449501    -0.16200
F1144       F  0.60225617  0.96224277  0.18628592    -0.13900
C1145       C  0.79746104  0.00340907  0.28731436     0.24100
C1146       C  0.82677161  0.00475218  0.30945150    -0.24000
C1147       C  0.83841671  0.97365399  0.32531110     0.19000
C1148       C  0.81884546  0.94314109  0.32275575     0.24100
C1149       C  0.78767176  0.94253735  0.30320078    -0.23900
C1150       C  0.77815211  0.97260254  0.28417906     0.19000
F1151       F  0.74926038  0.97291150  0.26365899    -0.13900
F1152       F  0.78590731  0.03235882  0.27037833    -0.16200
F1153       F  0.82999601  0.91467856  0.34079364    -0.16200
F1154       F  0.86785862  0.97303213  0.34507067    -0.13900
C1155       C  0.89866487  0.85644808  0.31874119     0.24100
C1156       C  0.91093425  0.88869329  0.30625501    -0.24000
C1157       C  0.89266061  0.90452983  0.27841311     0.19000
C1158       C  0.86220860  0.88881431  0.26417140     0.24100
C1159       C  0.84934941  0.85679548  0.27742662    -0.23900
C1160       C  0.86868019  0.84068414  0.30456960     0.19000
F1161       F  0.85851182  0.80933798  0.31781600    -0.13900
F1162       F  0.91583578  0.84002489  0.34503720    -0.16200
F1163       F  0.84463892  0.90562719  0.23842921    -0.16200
F1164       F  0.90380041  0.93566530  0.26554766    -0.13900
C1165       C  0.90786361  0.76387426  0.16244644     0.24100
C1166       C  0.90891353  0.73424628  0.14051275    -0.24000
C1167       C  0.87924532  0.71272473  0.13834615     0.19000
C1168       C  0.85270772  0.71613166  0.16259001     0.24100
C1169       C  0.85332643  0.74342795  0.18735039    -0.23900
C1170       C  0.88011404  0.76849046  0.18564467     0.19000
F1171       F  0.88025790  0.79664967  0.20722779    -0.13900
F1172       F  0.93474215  0.78705761  0.16326353    -0.16200
F1173       F  0.82760269  0.69100545  0.16293398    -0.16200
F1174       F  0.87730564  0.68577764  0.11531362    -0.13900
C1175       C  0.15943441  0.66607919  0.70193437     0.24100
C1176       C  0.18847744  0.68532254  0.68967658    -0.24000
C1177       C  0.20175099  0.67786553  0.65616857     0.19000
C1178       C  0.18623862  0.65171557  0.63554844     0.24100
C1179       C  0.15696865  0.63324476  0.64789179    -0.23900
C1180       C  0.14389993  0.64050534  0.68121417     0.19000
F1181       F  0.11663422  0.62182165  0.69423165    -0.13900
F1182       F  0.14602161  0.67179409  0.73427584    -0.16200
F1183       F  0.19973326  0.64438704  0.60361047    -0.16200
F1184       F  0.22900257  0.69641154  0.64301779    -0.13900
C1185       C  0.26574880  0.62950332  0.79073812     0.24100
C1186       C  0.27341610  0.66053914  0.80900015    -0.24000
C1187       C  0.30200077  0.66054996  0.83228194     0.19000
C1188       C  0.32150179  0.63051953  0.83793468     0.24100
C1189       C  0.31193645  0.59872542  0.82228989    -0.23900
C1190       C  0.28462648  0.59878422  0.79752824     0.19000
F1191       F  0.27498703  0.56892066  0.78097712    -0.13900
F1192       F  0.23931542  0.62841582  0.76717617    -0.16200
F1193       F  0.34902237  0.63252809  0.86019315    -0.16200
F1194       F  0.31039539  0.68916835  0.85143187    -0.13900
C1195       C  0.34781869  0.74678501  0.81470112     0.24100
C1196       C  0.33592693  0.74113626  0.78016769    -0.24000
C1197       C  0.35220027  0.71496565  0.76006324     0.19000
C1198       C  0.37984194  0.69530865  0.77412932     0.24100
C1199       C  0.39081520  0.70078203  0.80874392    -0.23900
C1200       C  0.37452752  0.72657309  0.82878441     0.19000
F1201       F  0.38548843  0.73327459  0.86181644    -0.13900
F1202       F  0.33349761  0.77180188  0.83541777    -0.16200
F1203       F  0.39608366  0.67108594  0.75394683    -0.16200
F1204       F  0.34173799  0.70865386  0.72683390    -0.13900
C1205       C  0.36160355  0.88427058  0.66737588     0.24100
C1206       C  0.36124330  0.86223221  0.69696693    -0.24000
C1207       C  0.39285081  0.84659485  0.70755388     0.19000
C1208       C  0.42413470  0.85415474  0.69003481     0.24100
C1209       C  0.42445918  0.87743700  0.66149428    -0.23900
C1210       C  0.39259493  0.89140553  0.64979161     0.19000
F1211       F  0.39128531  0.91284424  0.62155119    -0.13900
F1212       F  0.33204464  0.89981643  0.65543224    -0.16200
F1213       F  0.45424683  0.84001459  0.70227199    -0.16200
F1214       F  0.39391061  0.82492533  0.73560542    -0.13900
C1215       C  0.26346944  0.85473240  0.61035004     0.24100
C1216       C  0.27851685  0.82955783  0.63256740    -0.24000
C1217       C  0.31344534  0.81940467  0.62698709     0.19000
C1218       C  0.33319049  0.83512335  0.60030489     0.24100
C1219       C  0.31824758  0.86120676  0.57928592    -0.23900
C1220       C  0.28316640  0.87034606  0.58406538     0.19000
F1221       F  0.26780760  0.89423028  0.56279369    -0.13900
F1222       F  0.22951938  0.86438224  0.61414007    -0.16200
F1223       F  0.36686482  0.82524401  0.59522680    -0.16200
F1224       F  0.32887894  0.79561682  0.64826062    -0.13900
C1225       C  0.16422526  0.74413108  0.54620691     0.24100
C1226       C  0.13876949  0.71745954  0.54518725    -0.24000
C1227       C  0.12353780  0.70624310  0.57670510     0.19000
C1228       C  0.13208546  0.72236091  0.60806940     0.24100
C1229       C  0.15651397  0.75004584  0.60903484    -0.23900
C1230       C  0.17302517  0.76019154  0.57777245     0.19000
F1231       F  0.19697965  0.78640008  0.57735310    -0.13900
F1232       F  0.17962223  0.75596948  0.51653271    -0.16200
F1233       F  0.11532618  0.71122051  0.63730935    -0.16200
F1234       F  0.09959285  0.68001061  0.57739156    -0.13900
C1235       C  0.06440263  0.77354007  0.86346331     0.24100
C1236       C  0.04673091  0.74418781  0.85032964    -0.24000
C1237       C  0.05552136  0.73085462  0.81754350     0.19000
C1238       C  0.08247883  0.74572475  0.79839360     0.24100
C1239       C  0.10176838  0.77407999  0.81195523    -0.23900
C1240       C  0.09208110  0.78838529  0.84442923     0.19000
F1241       F  0.11008130  0.81563586  0.85825728    -0.13900
F1242       F  0.05504347  0.78747670  0.89466898    -0.16200
F1243       F  0.08972791  0.73213765  0.76643036    -0.16200
F1244       F  0.03736647  0.70364213  0.80371348    -0.13900
C1245       C  0.04367983  0.84435237  0.70939629     0.24100
C1246       C  0.07312683  0.84523633  0.68742332    -0.24000
C1247       C  0.07064442  0.86269437  0.65514627     0.19000
C1248       C  0.04023499  0.87976705  0.64548527     0.24100
C1249       C  0.01083705  0.88000907  0.66765926    -0.23900
C1250       C  0.01277809  0.86160418  0.69964754     0.19000
F1251       F  0.98492876  0.86012566  0.72157618    -0.13900
F1252       F  0.04486003  0.82727133  0.74043961    -0.16200
F1253       F  0.03987981  0.89552735  0.61372140    -0.16200
F1254       F  0.09754705  0.86265455  0.63196335    -0.13900
C1255       C  0.25837204  0.97639901  0.79430679     0.24100
C1256       C  0.28049659  0.94707670  0.79612931    -0.24000
C1257       C  0.31099683  0.94931466  0.81661910     0.19000
C1258       C  0.31946483  0.97977537  0.83429426     0.24100
C1259       C  0.29836215  0.00982103  0.83148266    -0.23900
C1260       C  0.26724632  0.00754968  0.81171606     0.19000
F1261       F  0.24548187  0.03541006  0.80882800    -0.13900
F1262       F  0.22814904  0.97497301  0.77586365    -0.16200
F1263       F  0.34928777  0.97960117  0.85345913    -0.16200
F1264       F  0.33388583  0.92226668  0.81887028    -0.13900
C1265       C  0.12116357  0.97056176  0.72475799     0.24100
C1266       C  0.11813730  0.97394934  0.68820291    -0.24000
C1267       C  0.13223041  0.94795705  0.66677687     0.19000
C1268       C  0.15074824  0.92023526  0.68117942     0.24100
C1269       C  0.15433292  0.91658537  0.71778802    -0.23900
C1270       C  0.13850453  0.94164735  0.73950003     0.19000
F1271       F  0.14150208  0.93929566  0.77470819    -0.13900
F1272       F  0.10807165  0.99569517  0.74609234    -0.16200
F1273       F  0.16627867  0.89761040  0.65870293    -0.16200
F1274       F  0.13077578  0.95088560  0.63147962    -0.13900
C1275       C  0.24384717  0.90216401  0.91635162     0.24100
C1276       C  0.28035547  0.90504824  0.92023298    -0.24000
C1277       C  0.30230778  0.88909360  0.89579273     0.19000
C1278       C  0.28829671  0.86950987  0.86871512     0.24100
C1279       C  0.25170337  0.86659592  0.86432258    -0.23900
C1280       C  0.22957791  0.88356271  0.88818202     0.19000
F1281       F  0.19435728  0.88067662  0.88531122    -0.13900
F1282       F  0.22208189  0.91675062  0.94025450    -0.16200
F1283       F  0.31102701  0.85274451  0.84722273    -0.16200
F1284       F  0.33758542  0.89015723  0.89953928    -0.13900
C1285       C  0.12257043  0.72078963  0.92787572     0.24100
C1286       C  0.13884996  0.72769637  0.95984314    -0.24000
C1287       C  0.17204443  0.74359394  0.96002534     0.19000
C1288       C  0.18901287  0.75156873  0.92853446     0.24100
C1289       C  0.17313536  0.74347689  0.89636279    -0.23900
C1290       C  0.13962054  0.72798397  0.89662552     0.19000
F1291       F  0.12345920  0.71849510  0.86661969    -0.13900
F1292       F  0.09017811  0.70629069  0.92680939    -0.16200
F1293       F  0.22176118  0.76517997  0.92967178    -0.16200
F1294       F  0.18903997  0.74935549  0.99056865    -0.13900
C1295       C  0.80732139  0.45675680  0.70412865     0.24100
C1296       C  0.77287243  0.44446199  0.70515200    -0.24000
C1297       C  0.74787317  0.45775015  0.68201894     0.19000
C1298       C  0.75786074  0.48244863  0.65702979     0.24100
C1299       C  0.79294335  0.49326681  0.65490083    -0.23900
C1300       C  0.81739257  0.48072628  0.67907159     0.19000
F1301       F  0.85090564  0.49243204  0.67919796    -0.13900
F1302       F  0.83165080  0.44423347  0.72668237    -0.16200
F1303       F  0.73368087  0.49515506  0.63446653    -0.16200
F1304       F  0.71465763  0.44527920  0.68226409    -0.13900
C1305       C  0.64530084  0.44362032  0.76237123     0.24100
C1306       C  0.65293271  0.41581300  0.78535075    -0.24000
C1307       C  0.64575026  0.42117492  0.82118081     0.19000
C1308       C  0.63214711  0.45306462  0.83368792     0.24100
C1309       C  0.62628032  0.48164755  0.81113893    -0.23900
C1310       C  0.63264752  0.47613039  0.77507177     0.19000
F1311       F  0.62685945  0.50233013  0.75189087    -0.13900
F1312       F  0.65179657  0.44007567  0.72773476    -0.16200
F1313       F  0.62646114  0.45633797  0.86850112    -0.16200
F1314       F  0.65272827  0.39563206  0.84472045    -0.13900
C1315       C  0.57192400  0.34483152  0.85238903     0.24100
C1316       C  0.57945019  0.33647669  0.81760647    -0.24000
C1317       C  0.56181707  0.35292281  0.79025473     0.19000
C1318       C  0.53723633  0.37859861  0.79771802     0.24100
C1319       C  0.53075104  0.38808502  0.83255988    -0.23900
C1320       C  0.54792537  0.37065690  0.85987982     0.19000
F1321       F  0.54092856  0.37780264  0.89390287    -0.13900
F1322       F  0.58906350  0.32888003  0.87908059    -0.16200
F1323       F  0.52046621  0.39476584  0.77103837    -0.16200
F1324       F  0.57021204  0.34587461  0.75654907    -0.13900
C1325       C  0.57380520  0.28904508  0.68111176     0.24100
C1326       C  0.59960395  0.26542965  0.69277841    -0.24000
C1327       C  0.59293417  0.22930228  0.68849086     0.19000
C1328       C  0.56199017  0.21720647  0.67300085     0.24100
C1329       C  0.53572985  0.24058912  0.66218726    -0.23900
C1330       C  0.54206843  0.27678170  0.66655715     0.19000
F1331       F  0.51763777  0.30041866  0.65649750    -0.13900
F1332       F  0.57873916  0.32400035  0.68471483    -0.16200
F1333       F  0.55721299  0.18214456  0.67004209    -0.16200
F1334       F  0.61645905  0.20515386  0.69949200    -0.13900
C1335       C  0.62079543  0.21250623  0.57846110     0.24100
C1336       C  0.62291273  0.23504698  0.54946929    -0.24000
C1337       C  0.64520909  0.26446390  0.55150446     0.19000
C1338       C  0.66619137  0.26992824  0.58099536     0.24100
C1339       C  0.66558571  0.24589392  0.60877821    -0.23900
C1340       C  0.64232587  0.21727575  0.60704575     0.19000
F1341       F  0.64103286  0.19249528  0.63242497    -0.13900
F1342       F  0.59899923  0.18445611  0.57902627    -0.16200
F1343       F  0.68746912  0.29834247  0.58196178    -0.16200
F1344       F  0.64730227  0.28771327  0.52482077    -0.13900
C1345       C  0.78705444  0.37409016  0.63613998     0.24100
C1346       C  0.75002857  0.37124763  0.63893640    -0.24000
C1347       C  0.72963163  0.38686489  0.61289604     0.19000
C1348       C  0.74588001  0.40293521  0.58384121     0.24100
C1349       C  0.78279865  0.40480598  0.58118796    -0.23900
C1350       C  0.80285956  0.39150372  0.60849764     0.19000
F1351       F  0.83833828  0.39212928  0.60696074    -0.13900
F1352       F  0.80883465  0.35795797  0.65898851    -0.16200
F1353       F  0.72560783  0.41580375  0.55785439    -0.16200
F1354       F  0.69428706  0.38436441  0.61421858    -0.13900
C1355       C  0.79045283  0.14517160  0.71593894     0.24100
C1356       C  0.78457522  0.16956277  0.68917305    -0.24000
C1357       C  0.80658489  0.16953913  0.65967088     0.19000
C1358       C  0.83234485  0.14463707  0.65600490     0.24100
C1359       C  0.83459420  0.11686812  0.67997803    -0.23900
C1360       C  0.81519792  0.11872956  0.71124515     0.19000
F1361       F  0.81861369  0.09379037  0.73623170    -0.13900
F1362       F  0.77162892  0.14617071  0.74599291    -0.16200
F1363       F  0.85225102  0.14595382  0.62664265    -0.16200
F1364       F  0.80214306  0.19241723  0.63288518    -0.13900
C1365       C  0.71346145  0.15756461  0.83385590     0.24100
C1366       C  0.69779077  0.17309724  0.80449270    -0.24000
C1367       C  0.66732577  0.15670538  0.79076032     0.19000
C1368       C  0.65219178  0.12752522  0.80688037     0.24100
C1369       C  0.66710006  0.11264552  0.83669625    -0.23900
C1370       C  0.69847932  0.12740075  0.84959219     0.19000
F1371       F  0.71405409  0.11325532  0.87801531    -0.13900
F1372       F  0.74238516  0.17224852  0.84811739    -0.16200
F1373       F  0.62275998  0.11348164  0.79286413    -0.16200
F1374       F  0.65134365  0.16918570  0.76167106    -0.13900
C1375       C  0.89982055  0.34733522  0.84404101     0.24100
C1376       C  0.90635443  0.38255530  0.85256500    -0.24000
C1377       C  0.88556352  0.40901248  0.83801377     0.19000
C1378       C  0.86026609  0.40070339  0.81381934     0.24100
C1379       C  0.85433218  0.36575105  0.80437961    -0.23900
C1380       C  0.87368587  0.33891262  0.82004964     0.19000
F1381       F  0.86682050  0.30485210  0.81270621    -0.13900
F1382       F  0.91939637  0.32138119  0.85821627    -0.16200
F1383       F  0.84191193  0.42718238  0.79889360    -0.16200
F1384       F  0.89161412  0.44338468  0.84463312    -0.13900
C1385       C  0.89838045  0.21529061  0.72091529     0.24100
C1386       C  0.90488742  0.21586910  0.68454400    -0.24000
C1387       C  0.87907829  0.23059823  0.66300530     0.19000
C1388       C  0.84845650  0.24527686  0.67718018     0.24100
C1389       C  0.84152632  0.24461555  0.71355445    -0.23900
C1390       C  0.86693164  0.22891112  0.73515130     0.19000
F1391       F  0.86193393  0.22765240  0.77018768    -0.13900
F1392       F  0.92240852  0.20119340  0.74278503    -0.16200
F1393       F  0.82543048  0.26024864  0.65478799    -0.16200
F1394       F  0.88405443  0.23215753  0.62795174    -0.13900
C1395       C  0.79950154  0.39023601  0.89574375     0.24100
C1396       C  0.81961823  0.37163174  0.91968919    -0.24000
C1397       C  0.82422679  0.33525353  0.91468365     0.19000
C1398       C  0.80831391  0.31783068  0.88632424     0.24100
C1399       C  0.78647564  0.33625162  0.86345358    -0.23900
C1400       C  0.78264633  0.37299043  0.86861495     0.19000
F1401       F  0.76144627  0.39273606  0.84813549    -0.20100
F1402       F  0.79367550  0.42502832  0.90016756    -0.16200
F1403       F  0.81286741  0.28287319  0.88230588    -0.16200
F1404       F  0.84360774  0.31654346  0.93762656    -0.13900
C1405       C  0.69053404  0.24919296  0.92303594     0.24100
C1406       C  0.67605709  0.23706971  0.89145657    -0.24000
C1407       C  0.65958697  0.20411976  0.89094814     0.19000
C1408       C  0.65537861  0.18501997  0.92142812     0.24100
C1409       C  0.66588846  0.19902830  0.95356808    -0.23900
C1410       C  0.68513963  0.23048536  0.95397005     0.19000
F1411       F  0.69630932  0.24470410  0.98445296    -0.13900
F1412       F  0.70755983  0.28033823  0.92465940    -0.16200
F1413       F  0.63879741  0.15365441  0.91967000    -0.16200
F1414       F  0.64536991  0.19100672  0.86132421    -0.13900
C1415       C  0.63836220  0.44664812  0.16846046     0.24100
C1416       C  0.66561952  0.44590728  0.19330249    -0.24000
C1417       C  0.67349650  0.47695954  0.21146560     0.19000
C1418       C  0.65623230  0.50830438  0.20322113     0.24100
C1419       C  0.63059018  0.50916066  0.17675712    -0.23900
C1420       C  0.62088985  0.47752729  0.16077936     0.19000
F1421       F  0.59493893  0.47630428  0.13666326    -0.13900
F1422       F  0.62909252  0.41773569  0.15011593    -0.16200
F1423       F  0.66576277  0.53793749  0.22023206    -0.16200
F1424       F  0.69856852  0.47739259  0.23648291    -0.13900
C1425       C  0.72718273  0.43430938  0.33918940     0.24100
C1426       C  0.74863228  0.41504406  0.31634747    -0.24000
C1427       C  0.78460031  0.42347908  0.31434784     0.19000
C1428       C  0.79831800  0.45106832  0.33336890     0.24100
C1429       C  0.77666027  0.47148012  0.35443391    -0.23900
C1430       C  0.74105662  0.46285497  0.35767158     0.19000
F1431       F  0.71973744  0.48245527  0.37814620    -0.13900
F1432       F  0.69281229  0.42631452  0.34279331    -0.16200
F1433       F  0.83251069  0.45959559  0.32894421    -0.16200
F1434       F  0.80686005  0.40562950  0.29322862    -0.13900
C1435       C  0.75354907  0.35428880  0.41894353     0.24100
C1436       C  0.77975175  0.34577189  0.39466306    -0.24000
C1437       C  0.81443653  0.35536820  0.40154553     0.19000
C1438       C  0.82293800  0.37366311  0.43162859     0.24100
C1439       C  0.79686075  0.38325711  0.45582899    -0.23900
C1440       C  0.76201700  0.37302584  0.44935599     0.19000
F1441       F  0.73608376  0.38184901  0.47188419    -0.13900
F1442       F  0.71973909  0.34566013  0.41260853    -0.16200
F1443       F  0.85717187  0.38113016  0.43721999    -0.16200
F1444       F  0.84055142  0.34645112  0.37919405    -0.13900
C1445       C  0.65376280  0.23317847  0.37228194     0.24100
C1446       C  0.65481199  0.26951025  0.36553140    -0.24000
C1447       C  0.63644763  0.29225022  0.38781495     0.19000
C1448       C  0.61814007  0.27884931  0.41664313     0.24100
C1449       C  0.61706629  0.24256173  0.42277427    -0.23900
C1450       C  0.63477689  0.21996280  0.40020540     0.19000
F1451       F  0.63554835  0.18497604  0.40637780    -0.13900
F1452       F  0.67131382  0.20996426  0.35196474    -0.16200
F1453       F  0.60181972  0.30123996  0.43878880    -0.16200
F1454       F  0.63722119  0.32733958  0.38249494    -0.13900
C1455       C  0.67443826  0.10113754  0.17850880     0.24100
C1456       C  0.64568390  0.09945919  0.15551029    -0.24000
C1457       C  0.62493464  0.12957796  0.15117586     0.19000
C1458       C  0.63043111  0.15899695  0.17156093     0.24100
C1459       C  0.65813228  0.16033295  0.19576295    -0.23900
C1460       C  0.68066429  0.13136667  0.19833129     0.19000
F1461       F  0.70844904  0.13199557  0.22029449    -0.13900
F1462       F  0.69612470  0.07337018  0.18258352    -0.16200
F1463       F  0.60724212  0.18567841  0.16829603    -0.16200
F1464       F  0.59795753  0.13053348  0.12818433    -0.13900
C1465       C  0.76736111  0.16639855  0.30803559     0.24100
C1466       C  0.77861061  0.18430423  0.27774296    -0.24000
C1467       C  0.81031451  0.17420174  0.26199546     0.19000
C1468       C  0.83057235  0.14738435  0.27681610     0.24100
C1469       C  0.81982841  0.13108271  0.30791796    -0.23900
C1470       C  0.78792606  0.14044375  0.32303468     0.19000
F1471       F  0.77607993  0.12352885  0.35191131    -0.13900
F1472       F  0.73624922  0.17391910  0.32339200    -0.16200
F1473       F  0.86068541  0.13739971  0.26097292    -0.16200
F1474       F  0.82202512  0.19062028  0.23283309    -0.13900
C1475       C  0.78359674  0.39875436  0.10504490     0.24100
C1476       C  0.76554185  0.36683920  0.10808334    -0.24000
C1477       C  0.76610516  0.34338968  0.07978353     0.19000
C1478       C  0.78442374  0.35183223  0.04908649     0.24100
C1479       C  0.80247417  0.38396521  0.04615251    -0.23900
C1480       C  0.80177364  0.40712367  0.07483298     0.19000
F1481       F  0.81785674  0.43877936  0.07381446    -0.13900
F1482       F  0.78293819  0.42287221  0.13108011    -0.16200
F1483       F  0.78436062  0.32850501  0.02239649    -0.16200
F1484       F  0.74936708  0.31214078  0.08192183    -0.13900
C1485       C  0.70924563  0.21596898  0.11720625     0.24100
C1486       C  0.68702753  0.23894104  0.13538780    -0.24000
C1487       C  0.65125684  0.24008596  0.12620524     0.19000
C1488       C  0.63834181  0.21959054  0.09921813     0.24100
C1489       C  0.66076360  0.19798495  0.08012937    -0.23900
C1490       C  0.69625302  0.19600511  0.08939688     0.19000
F1491       F  0.71837620  0.17515891  0.07111629    -0.13900
F1492       F  0.74356658  0.21343304  0.12567578    -0.16200
F1493       F  0.60412786  0.22264302  0.09034014    -0.16200
F1494       F  0.62833783  0.26120530  0.14318287    -0.13900
C1495       C  0.04779822  0.37301992  0.13084384     0.24100
C1496       C  0.01620650  0.36216722  0.14615660    -0.24000
C1497       C  0.01702163  0.34508426  0.17866085     0.19000
C1498       C  0.04836732  0.34221111  0.19701831     0.24100
C1499       C  0.07946752  0.35650614  0.18324403    -0.23900
C1500       C  0.07891083  0.37093921  0.14940465     0.19000
F1501       F  0.10808233  0.38469141  0.13461285    -0.13900
F1502       F  0.04832493  0.38768381  0.09854447    -0.16200
F1503       F  0.04759458  0.32734913  0.22920626    -0.16200
F1504       F  0.98719026  0.33364070  0.19412868    -0.13900
C1505       C  0.84000246  0.37129950  0.18780947     0.24100
C1506       C  0.83228926  0.33506463  0.18703109    -0.24000
C1507       C  0.85289884  0.31321873  0.16584391     0.19000
C1508       C  0.88126865  0.32711465  0.14704804     0.24100
C1509       C  0.88879124  0.36319906  0.14823730    -0.23900
C1510       C  0.86754551  0.38510559  0.16837046     0.19000
F1511       F  0.87484595  0.41975905  0.17117653    -0.13900
F1512       F  0.82121069  0.39376916  0.20785806    -0.16200
F1513       F  0.90170094  0.30526583  0.12798621    -0.16200
F1514       F  0.84634430  0.27837293  0.16412318    -0.13900
C1515       C  0.05829423  0.20176089  0.27941954     0.24100
C1516       C  0.05067780  0.20968535  0.31465457    -0.24000
C1517       C  0.06924429  0.23654795  0.33085501     0.19000
C1518       C  0.09453977  0.25543026  0.31259172     0.24100
C1519       C  0.10321959  0.24732529  0.27739195    -0.23900
C1520       C  0.08484705  0.21990183  0.26115208     0.19000
F1521       F  0.09198433  0.21112675  0.22758821    -0.13900
F1522       F  0.03957038  0.17682740  0.26254908    -0.16200
F1523       F  0.11023977  0.28217411  0.32986788    -0.16200
F1524       F  0.06120098  0.24625895  0.36400085    -0.13900
C1525       C  0.89205985  0.20257873  0.33594265     0.24100
C1526       C  0.92378199  0.21489262  0.32212977    -0.24000
C1527       C  0.92306417  0.24326733  0.29856616     0.19000
C1528       C  0.89156377  0.26026361  0.29090377     0.24100
C1529       C  0.86019122  0.24947807  0.30689171    -0.23900
C1530       C  0.86086119  0.21970479  0.32875119     0.19000
F1531       F  0.83149580  0.20744533  0.34446996    -0.13900
F1532       F  0.89111350  0.17434359  0.35744455    -0.16200
F1533       F  0.89217695  0.28803744  0.26882164    -0.16200
F1534       F  0.95297814  0.25591315  0.28425079    -0.13900
C1535       C  0.38869827  0.83770651  0.35617993     0.24100
C1536       C  0.41143100  0.85932124  0.33673919    -0.24000
C1537       C  0.40422836  0.86446782  0.30119754     0.19000
C1538       C  0.37408857  0.85028091  0.28585762     0.24100
C1539       C  0.35032248  0.82980096  0.30540113    -0.23900
C1540       C  0.35864906  0.82272571  0.34056232     0.19000
F1541       F  0.33687379  0.80283752  0.36028050    -0.13900
F1542       F  0.39539560  0.83138716  0.39036349    -0.16200
F1543       F  0.36794721  0.85696828  0.25160113    -0.16200
F1544       F  0.42613415  0.88410860  0.28132643    -0.13900
C1545       C  0.35294334  0.71666960  0.16412850     0.24100
C1546       C  0.35433225  0.74110474  0.19175518    -0.24000
C1547       C  0.38044578  0.73764345  0.21716416     0.19000
C1548       C  0.40707263  0.71313788  0.21258001     0.24100
C1549       C  0.40770070  0.69170561  0.18255899    -0.23900
C1550       C  0.37830662  0.69116493  0.16072895     0.19000
F1551       F  0.37576443  0.66862150  0.13344283    -0.13900
F1552       F  0.32835399  0.71851265  0.13866412    -0.16200
F1553       F  0.43354165  0.71234317  0.23610785    -0.16200
F1554       F  0.38124636  0.75897241  0.24548012    -0.13900
C1555       C  0.13213292  0.73567851  0.39719003     0.24100
C1556       C  0.14876235  0.71131650  0.41854217    -0.24000
C1557       C  0.18483877  0.70512180  0.41354661     0.19000
C1558       C  0.20373059  0.72274582  0.38712607     0.24100
C1559       C  0.18716744  0.74801572  0.36622264    -0.23900
C1560       C  0.15090774  0.75413923  0.37197349     0.19000
F1561       F  0.13293841  0.77829748  0.35320626    -0.13900
F1562       F  0.09785486  0.74341520  0.40222943    -0.16200
F1563       F  0.23826223  0.71597881  0.38290219    -0.16200
F1564       F  0.20191837  0.68252961  0.43484554    -0.13900
C1565       C  0.27853035  0.83829068  0.41975783     0.24100
C1566       C  0.28707592  0.85891052  0.39045210    -0.24000
C1567       C  0.31677865  0.88066394  0.39208260     0.19000
C1568       C  0.33593682  0.88342227  0.42270957     0.24100
C1569       C  0.32526459  0.86558395  0.45310601    -0.23900
C1570       C  0.29732726  0.84169889  0.45080563     0.19000
F1571       F  0.28686822  0.82282392  0.47895993    -0.13900
F1572       F  0.25130078  0.81553073  0.41894536    -0.16200
F1573       F  0.36420760  0.90494331  0.42271771    -0.16200
F1574       F  0.32717666  0.90020567  0.36432679    -0.13900
C1575       C  0.06975167  0.89459030  0.33240963     0.24100
C1576       C  0.04084058  0.89883133  0.31001387    -0.24000
C1577       C  0.04641356  0.89230100  0.27399229     0.19000
C1578       C  0.07938089  0.88098316  0.26119079     0.24100
C1579       C  0.10766460  0.87513233  0.28404277    -0.23900
C1580       C  0.10219923  0.88264317  0.31979677     0.19000
F1581       F  0.12824245  0.87750459  0.34321542    -0.13900
F1582       F  0.06635642  0.90023967  0.36722130    -0.16200
F1583       F  0.08297801  0.87398674  0.22666449    -0.16200
F1584       F  0.01984293  0.89662452  0.25098661    -0.13900
C1585       C  0.04209074  0.70552914  0.19153311     0.24100
C1586       C  0.03073217  0.72698273  0.16415964    -0.24000
C1587       C  0.04271004  0.76162036  0.16158266     0.19000
C1588       C  0.06728783  0.77416150  0.18533120     0.24100
C1589       C  0.07936609  0.75220061  0.21194673    -0.23900
C1590       C  0.06623143  0.71814490  0.21533090     0.19000
F1591       F  0.07833155  0.69656506  0.24078050    -0.13900
F1592       F  0.02931644  0.67262682  0.19564775    -0.16200
F1593       F  0.08099546  0.80663176  0.18099045    -0.16200
F1594       F  0.03137751  0.78274795  0.13547190    -0.13900
C1595       C  0.15217936  0.73676542  0.14034711     0.24100
C1596       C  0.15367877  0.77402190  0.14189016    -0.24000
C1597       C  0.13703906  0.79306936  0.11554096     0.19000
C1598       C  0.12132535  0.77540324  0.08728759     0.24100
C1599       C  0.12104245  0.73834956  0.08563564    -0.23900
C1600       C  0.13535343  0.71948577  0.11325813     0.19000
F1601       F  0.13631408  0.68395264  0.11248600    -0.13900
F1602       F  0.16902724  0.71627835  0.16388874    -0.16200
F1603       F  0.10742820  0.79448697  0.06091654    -0.16200
F1604       F  0.13814179  0.82854063  0.11579702    -0.13900
C1605       C  0.25676795  0.85372537  0.07894658     0.24100
C1606       C  0.27811633  0.85880666  0.10841648    -0.24000
C1607       C  0.30390951  0.88516722  0.10715421     0.19000
C1608       C  0.30882780  0.90518776  0.07738845     0.24100
C1609       C  0.28923944  0.89869224  0.04702882    -0.23900
C1610       C  0.26240765  0.87329512  0.04847460     0.19000
F1611       F  0.24221314  0.86644900  0.02019822    -0.13900
F1612       F  0.23117719  0.82910600  0.07903103    -0.16200
F1613       F  0.33404587  0.93017782  0.07834931    -0.16200
F1614       F  0.32579876  0.89113362  0.13432964    -0.13900
C1615       C  0.23257632  0.16216739  0.16384508     0.24100
C1616       C  0.25281994  0.18448344  0.18519090    -0.24000
C1617       C  0.28794055  0.17420212  0.19152914     0.19000
C1618       C  0.30227405  0.14370822  0.17681675     0.24100
C1619       C  0.28211302  0.12127798  0.15604108    -0.23900
C1620       C  0.24687993  0.13073785  0.14995197     0.19000
F1621       F  0.22634785  0.10970256  0.13015994    -0.13900
F1622       F  0.19884214  0.17036619  0.15678025    -0.16200
F1623       F  0.33602323  0.13550950  0.18397645    -0.16200
F1624       F  0.30921776  0.19397273  0.21187173    -0.13900
C1625       C  0.24891428  0.98278925  0.15895000     0.24100
C1626       C  0.28486711  0.99120928  0.15892061    -0.24000
C1627       C  0.30807060  0.96709565  0.17405250     0.19000
C1628       C  0.29588629  0.93621550  0.18970840     0.24100
C1629       C  0.25992647  0.92743945  0.18992881    -0.23900
C1630       C  0.23664628  0.95107404  0.17376560     0.19000
F1631       F  0.20193301  0.94393234  0.17284614    -0.13900
F1632       F  0.22564766  0.00504390  0.14414352    -0.16200
F1633       F  0.31985494  0.91473263  0.20461845    -0.16200
F1634       F  0.34286872  0.97397816  0.17495575    -0.13900
C1635       C  0.15476832  0.14395444  0.27937635     0.24100
C1636       C  0.15867743  0.17123283  0.30345258    -0.24000
C1637       C  0.13817668  0.17125924  0.33412251     0.19000
C1638       C  0.11507202  0.14432789  0.34101762     0.24100
C1639       C  0.11284023  0.11563313  0.31830397    -0.23900
C1640       C  0.13187830  0.11643095  0.28660956     0.19000
F1641       F  0.12947136  0.08994929  0.26312743    -0.13900
F1642       F  0.17328460  0.14363487  0.24911381    -0.16200
F1643       F  0.09683219  0.14558865  0.37141133    -0.16200
F1644       F  0.14132094  0.19673474  0.35865709    -0.13900
C1645       C  0.15450011  0.98594408  0.35038289     0.24100
C1646       C  0.12985004  0.99452911  0.32468511    -0.24000
C1647       C  0.13426456  0.98268665  0.29032150     0.19000
C1648       C  0.16211828  0.96056529  0.28228898     0.24100
C1649       C  0.18588472  0.95111997  0.30848028    -0.23900
C1650       C  0.18243016  0.96458459  0.34222293     0.19000
F1651       F  0.20506671  0.95513485  0.36782627    -0.13900
F1652       F  0.15208101  0.99898186  0.38328187    -0.16200
F1653       F  0.16447506  0.94637789  0.24989189    -0.16200
F1654       F  0.11120390  0.99184536  0.26503604    -0.13900
C1655       C  0.30769865  0.43873630  0.76302379     0.24100
C1656       C  0.28020282  0.42038714  0.77918466    -0.24000
C1657       C  0.27330487  0.42765413  0.81499656     0.19000
C1658       C  0.29273327  0.45234165  0.83353567     0.24100
C1659       C  0.31893374  0.47165164  0.81702776    -0.23900
C1660       C  0.32639347  0.46460081  0.78159788     0.19000
F1661       F  0.35130260  0.48344516  0.76476724    -0.13900
F1662       F  0.31588444  0.43241465  0.72915922    -0.16200
F1663       F  0.28401493  0.45923653  0.86721818    -0.16200
F1664       F  0.24726787  0.41112074  0.83262419    -0.13900
C1665       C  0.18735058  0.47409547  0.68633363     0.24100
C1666       C  0.16670774  0.44437495  0.67926412    -0.24000
C1667       C  0.14367199  0.44541250  0.65062440     0.19000
C1668       C  0.13990802  0.47564013  0.63094448     0.24100
C1669       C  0.15743172  0.50658871  0.64046736    -0.23900
C1670       C  0.18257652  0.50499470  0.66729872     0.19000
F1671       F  0.20140155  0.53365655  0.67645308    -0.13900
F1672       F  0.21112668  0.47394440  0.71259856    -0.16200
F1673       F  0.11721954  0.47483488  0.60372063    -0.16200
F1674       F  0.12281329  0.41789120  0.64256568    -0.13900
C1675       C  0.39384461  0.27732359  0.64990389     0.24100
C1676       C  0.40595697  0.24396578  0.66037475    -0.24000
C1677       C  0.38683112  0.22627075  0.68612921     0.19000
C1678       C  0.35662901  0.24103780  0.70105870     0.24100
C1679       C  0.34338873  0.27401181  0.69008435    -0.23900
C1680       C  0.36277658  0.29197311  0.66422261     0.19000
F1681       F  0.35166456  0.32356456  0.65256530    -0.13900
F1682       F  0.41176739  0.29550904  0.62528489    -0.16200
F1683       F  0.33993961  0.22214416  0.72602942    -0.16200
F1684       F  0.39778695  0.19446513  0.69744969    -0.13900
C1685       C  0.37826253  0.37085606  0.78388368     0.24100
C1686       C  0.35256373  0.36420364  0.80907059    -0.24000
C1687       C  0.35441949  0.38048338  0.84191057     0.19000
C1688       C  0.38180541  0.40256877  0.84977768     0.24100
C1689       C  0.40874754  0.40789095  0.82539832    -0.23900
C1690       C  0.40623803  0.39267957  0.79197402     0.19000
F1691       F  0.43150440  0.39789027  0.76760077    -0.13900
F1692       F  0.37635190  0.35624398  0.75164033    -0.16200
F1693       F  0.38308492  0.41623394  0.88245907    -0.16200
F1694       F  0.33044217  0.37384406  0.86728623    -0.13900
C1695       C  0.29029108  0.19302521  0.81478058     0.24100
C1696       C  0.25317025  0.19487059  0.81257493    -0.24000
C1697       C  0.23357163  0.16798984  0.82784823     0.19000
C1698       C  0.25061863  0.13914625  0.84325264     0.24100
C1699       C  0.28759041  0.13728941  0.84445794    -0.23900
C1700       C  0.30697117  0.16514353  0.83099446     0.19000
F1701       F  0.34247385  0.16414055  0.83062113    -0.13900
F1702       F  0.31121843  0.21727861  0.79942321    -0.16200
F1703       F  0.23101677  0.11257229  0.85617996    -0.16200
F1704       F  0.19818673  0.16843194  0.82581418    -0.13900
C1705       C  0.17024815  0.13533959  0.71305171     0.24100
C1706       C  0.17621268  0.15954946  0.68610603    -0.24000
C1707       C  0.16240349  0.15304783  0.65276416     0.19000
C1708       C  0.14232023  0.12363449  0.64653145     0.24100
C1709       C  0.13561694  0.09938850  0.67339263    -0.23900
C1710       C  0.15013973  0.10532339  0.70670831     0.19000
F1711       F  0.14438846  0.08254395  0.73326764    -0.13900
F1712       F  0.18294620  0.14119147  0.74560681    -0.16200
F1713       F  0.13044511  0.11865754  0.61352349    -0.16200
F1714       F  0.16875534  0.17504368  0.62559398    -0.13900
C1715       C  0.06435525  0.22047326  0.66138313     0.24100
C1716       C  0.03551394  0.21534898  0.68377930    -0.24000
C1717       C  0.03997535  0.22365289  0.71949833     0.19000
C1718       C  0.07215686  0.23685939  0.73214702     0.24100
C1719       C  0.10036428  0.24322261  0.70927633    -0.23900
C1720       C  0.09581645  0.23457994  0.67374651     0.19000
F1721       F  0.12182375  0.24036407  0.65033799    -0.13900
F1722       F  0.06185310  0.21339027  0.62676109    -0.16200
F1723       F  0.07513594  0.24477572  0.76650518    -0.16200
F1724       F  0.01319650  0.21906763  0.74229918    -0.13900
C1725       C  0.06168975  0.40032242  0.78061237     0.24100
C1726       C  0.07441191  0.36604591  0.77942457    -0.24000
C1727       C  0.06199023  0.34075157  0.80277581     0.19000
C1728       C  0.03780603  0.35018574  0.82829550     0.24100
C1729       C  0.02681364  0.38509119  0.83089414    -0.23900
C1730       C  0.03811278  0.40989337  0.80633452     0.19000
F1731       F  0.02601499  0.44327558  0.80698589    -0.13900
F1732       F  0.07371343  0.42490290  0.75793626    -0.16200
F1733       F  0.02620327  0.32576167  0.85127149    -0.16200
F1734       F  0.07541358  0.30791260  0.80262444    -0.13900
C1735       C  0.30898234  0.18993204  0.08932103     0.24100
C1736       C  0.28828629  0.19181870  0.05920876    -0.24000
C1737       C  0.25828496  0.21327865  0.05960131     0.19000
C1738       C  0.25329927  0.23734090  0.08652161     0.24100
C1739       C  0.27822430  0.24010474  0.11316518    -0.23900
C1740       C  0.30507308  0.21478683  0.11522340     0.19000
F1741       F  0.32946623  0.21522737  0.14094150    -0.13900
F1742       F  0.33592574  0.16696340  0.09203460    -0.16200
F1743       F  0.22530442  0.25909591  0.08537234    -0.16200
F1744       F  0.23546076  0.21323984  0.03252105    -0.13900
C1745       C  0.32109895  0.24456121  0.92497285     0.24100
C1746       C  0.29860838  0.21875742  0.93810186    -0.24000
C1747       C  0.26354627  0.21770786  0.92722300     0.19000
C1748       C  0.25159132  0.24121111  0.90202597     0.24100
C1749       C  0.27449671  0.26632166  0.88834866    -0.23900
C1750       C  0.30900936  0.26828310  0.90043138     0.19000
F1751       F  0.33151070  0.29226625  0.88693781    -0.13900
F1752       F  0.35458372  0.24727178  0.93634288    -0.16200
F1753       F  0.21866014  0.23794778  0.88934950    -0.16200
F1754       F  0.24135742  0.19318191  0.94016374    -0.13900
C1755       C  0.18297089  0.36033609  0.09806472     0.24100
C1756       C  0.16723900  0.33199555  0.11615300    -0.24000
C1757       C  0.13665089  0.31741610  0.10154067     0.19000
C1758       C  0.12160609  0.33185446  0.07089656     0.24100
C1759       C  0.13663073  0.36126775  0.05434996    -0.23900
C1760       C  0.16778246  0.37475508  0.06800388     0.19000
F1761       F  0.18375286  0.40217989  0.05204375    -0.13900
F1762       F  0.21335381  0.37457625  0.10953150    -0.16200
F1763       F  0.09183981  0.31767922  0.05791321    -0.16200
F1764       F  0.12050524  0.29019876  0.11757150    -0.13900
C1765       C  0.14312069  0.37493946  0.86342335     0.24100
C1766       C  0.15193623  0.33925149  0.85892680    -0.24000
C1767       C  0.14751145  0.31702005  0.88792792     0.19000
C1768       C  0.13592793  0.33028459  0.92052078     0.24100
C1769       C  0.12761070  0.36619223  0.92507227    -0.23900
C1770       C  0.13071329  0.38798955  0.89552836     0.19000
F1771       F  0.12357094  0.42267357  0.89795136    -0.13900
F1772       F  0.14761909  0.39794140  0.83684696    -0.16200
F1773       F  0.13337291  0.30781077  0.94782099    -0.16200
F1774       F  0.15643685  0.28277822  0.88544417    -0.13900
C1775       C  0.58893023  0.39445891  0.23731755     0.24100
C1776       C  0.60199097  0.36488366  0.21970403    -0.24000
C1777       C  0.58808532  0.35644616  0.18654394     0.19000
C1778       C  0.56247285  0.37709816  0.17134691     0.24100
C1779       C  0.54927223  0.40615456  0.18897815    -0.23900
C1780       C  0.56223775  0.41464649  0.22221256     0.19000
F1781       F  0.54879510  0.44220060  0.24004290    -0.13900
F1782       F  0.60189313  0.40384029  0.26889736    -0.16200
F1783       F  0.54921705  0.36763812  0.13984957    -0.16200
F1784       F  0.59900619  0.32789477  0.16850048    -0.13900
C1785       C  0.36225549  0.38824231  0.17083967     0.24100
C1786       C  0.36263341  0.35780768  0.19161984    -0.24000
C1787       C  0.39366850  0.34886294  0.20914226     0.19000
C1788       C  0.42393307  0.36903204  0.20450996     0.24100
C1789       C  0.42344253  0.39899348  0.18288700    -0.23900
C1790       C  0.39173706  0.40902674  0.16747858     0.19000
F1791       F  0.38927918  0.43841958  0.14770747    -0.13900
F1792       F  0.33372337  0.39750512  0.15214011    -0.16200
F1793       F  0.45397051  0.35802930  0.21976468    -0.16200
F1794       F  0.39543482  0.31959607  0.22915372    -0.13900
C1795       C  0.51184752  0.25182338  0.31051373     0.24100
C1796       C  0.51067291  0.22385670  0.33459086    -0.24000
C1797       C  0.54172872  0.20546329  0.34160093     0.19000
C1798       C  0.57225929  0.21302255  0.32359299     0.24100
C1799       C  0.57352378  0.24033394  0.29882552    -0.23900
C1800       C  0.54303398  0.26010812  0.29298819     0.19000
F1801       F  0.54308510  0.28708014  0.26994148    -0.13900
F1802       F  0.48273804  0.27064409  0.30305986    -0.16200
F1803       F  0.60026358  0.19217778  0.32981768    -0.16200
F1804       F  0.54281077  0.17913468  0.36539597    -0.13900
C1805       C  0.35788786  0.21519512  0.32997565     0.24100
C1806       C  0.38368773  0.23411142  0.34737291    -0.24000
C1807       C  0.38105621  0.27104051  0.34853765     0.19000
C1808       C  0.35352020  0.28865896  0.33157847     0.24100
C1809       C  0.32882793  0.26972931  0.31240653    -0.23900
C1810       C  0.33138885  0.23249968  0.31221329     0.19000
F1811       F  0.30924804  0.21220358  0.29330507    -0.13900
F1812       F  0.35997826  0.17980080  0.32728051    -0.16200
F1813       F  0.35221114  0.32411255  0.33224905    -0.16200
F1814       F  0.40576497  0.29008558  0.36528003    -0.13900
C1815       C  0.29084101  0.46952160  0.16173226     0.24100
C1816       C  0.30736109  0.49282190  0.18470572    -0.24000
C1817       C  0.30948366  0.48327314  0.22026644     0.19000
C1818       C  0.29577279  0.45091270  0.23228872     0.24100
C1819       C  0.27869429  0.42774530  0.20917591    -0.23900
C1820       C  0.27625030  0.43808651  0.17370971     0.19000
F1821       F  0.26038465  0.41728420  0.14979111    -0.13900
F1822       F  0.28788141  0.47759348  0.12734128    -0.16200
F1823       F  0.29879306  0.44261010  0.26657047    -0.16200
F1824       F  0.32545802  0.50496641  0.24327970    -0.13900
C1825       C  0.27637503  0.67814625  0.18067130     0.24100
C1826       C  0.27937975  0.68601714  0.21679095    -0.24000
C1827       C  0.29729201  0.66147141  0.23769493     0.19000
C1828       C  0.31104292  0.63017240  0.22306304     0.24100
C1829       C  0.30847682  0.62301901  0.18688762    -0.23900
C1830       C  0.29117562  0.64776034  0.16604997     0.19000
F1831       F  0.28734724  0.64197558  0.13130679    -0.13900
F1832       F  0.25922755  0.70018901  0.15881322    -0.16200
F1833       F  0.32716383  0.60687312  0.24433872    -0.16200
F1834       F  0.30073367  0.66718149  0.27245486    -0.13900
C1835       C  0.17316468  0.48073803  0.33710735     0.24100
C1836       C  0.14041468  0.49672885  0.33383843    -0.24000
C1837       C  0.12002497  0.49110259  0.30399953     0.19000
C1838       C  0.13140525  0.46819264  0.27838564     0.24100
C1839       C  0.16313420  0.45061933  0.28245398    -0.23900
C1840       C  0.18435574  0.45725992  0.31157113     0.19000
F1841       F  0.21465543  0.43941317  0.31621584    -0.13900
F1842       F  0.19352233  0.48701033  0.36541521    -0.16200
F1843       F  0.11043599  0.46127495  0.25066778    -0.16200
F1844       F  0.08917603  0.50807914  0.29959860    -0.13900
C1845       C  0.17696079  0.61942864  0.33630033     0.24100
C1846       C  0.14489463  0.61807687  0.35464776    -0.24000
C1847       C  0.12236829  0.64700392  0.35328329     0.19000
C1848       C  0.12938775  0.67436924  0.33080040     0.24100
C1849       C  0.16028043  0.67476054  0.31072096    -0.23900
C1850       C  0.18452001  0.64757972  0.31441679     0.19000
F1851       F  0.21516373  0.64787395  0.29648938    -0.13900
F1852       F  0.20037674  0.59282817  0.33819530    -0.16200
F1853       F  0.10475818  0.69977271  0.32767996    -0.16200
F1854       F  0.09196436  0.64799944  0.37155955    -0.13900
C1855       C  0.15013219  0.37594710  0.36556674     0.24100
C1856       C  0.18647874  0.37057882  0.36063288    -0.24000
C1857       C  0.20851588  0.37909583  0.38887969     0.19000
C1858       C  0.19453236  0.39139026  0.42106270     0.24100
C1859       C  0.15804795  0.39644990  0.42585635    -0.23900
C1860       C  0.13635639  0.38899021  0.39713998     0.19000
F1861       F  0.10118464  0.39246990  0.40003629    -0.13900
F1862       F  0.12724112  0.36768297  0.33985048    -0.16200
F1863       F  0.21689034  0.39811555  0.44768577    -0.16200
F1864       F  0.24346948  0.37387566  0.38607600    -0.13900
C1865       C  0.19663929  0.39501824  0.56362365     0.24100
C1866       C  0.16067204  0.39080734  0.55578900    -0.24000
C1867       C  0.14033754  0.37117446  0.57907271     0.19000
C1868       C  0.15500146  0.35630181  0.60909156     0.24100
C1869       C  0.19084679  0.36126620  0.61795403    -0.23900
C1870       C  0.21140084  0.38084590  0.59459147     0.19000
F1871       F  0.24586712  0.38566432  0.60126337    -0.13900
F1872       F  0.21742859  0.41333956  0.54155129    -0.16200
F1873       F  0.13328171  0.33720259  0.62974283    -0.16200
F1874       F  0.10596375  0.36535970  0.57236060    -0.13900
C1875       C  0.26102464  0.21069036  0.39651618     0.24100
C1876       C  0.26157480  0.24540446  0.38467475    -0.24000
C1877       C  0.28608107  0.26906206  0.39800628     0.19000
C1878       C  0.30995184  0.25792740  0.42313748     0.24100
C1879       C  0.30954216  0.22303918  0.43478237    -0.23900
C1880       C  0.28481748  0.19952366  0.42139669     0.19000
F1881       F  0.28286709  0.16606052  0.43316133    -0.13900
F1882       F  0.23789926  0.18733976  0.38304996    -0.16200
F1883       F  0.33392840  0.28089615  0.43563802    -0.16200
F1884       F  0.28821998  0.30211127  0.38521556    -0.13900
C1885       C  0.30677519  0.26719136  0.55451516     0.24100
C1886       C  0.33266012  0.24088739  0.55590856    -0.24000
C1887       C  0.33992173  0.22498917  0.58801129     0.19000
C1888       C  0.31655251  0.22842762  0.61532978     0.24100
C1889       C  0.28720427  0.25060191  0.61224816    -0.23900
C1890       C  0.28419141  0.27206373  0.58267797     0.19000
F1891       F  0.25801000  0.29585557  0.57982911    -0.13900
F1892       F  0.30099381  0.28586353  0.52493988    -0.16200
F1893       F  0.32145452  0.20757693  0.64355754    -0.16200
F1894       F  0.36715279  0.20254085  0.59176535    -0.13900
loop_ 
_geom_bond_atom_site_label_1 
_geom_bond_atom_site_label_2 
_geom_bond_distance 
_geom_bond_site_symmetry_2 
_ccdc_geom_bond_type 
C1            N2   1.350       .  A
C1            N6   1.358       .  A
C1         C1886   1.473       .  S
N2            C3   1.350       .  A
C3            N4   1.357       .  A
C3         C1879   1.458       .  S
N4            C5   1.355       .  A
C5            N6   1.352       .  A
C5          C863   1.457       .  S
C7            N8   1.367       .  A
C7           N12   1.378       .  A
C7         C1859   1.526       .  S
N8            C9   1.366       .  A
C9           N10   1.373       .  A
C9         C1866   1.509       .  S
N10          C11   1.370       .  A
C11          N12   1.374       .  A
C11         C761   1.525       .  S
C13          N14   1.355       .  A
C13          N18   1.347       .  A
C13        C1836   1.447       .  S
N14          C15   1.354       .  A
C15          N16   1.353       .  A
C15         C784   1.456       .  S
N16          C17   1.358       .  A
C17          N18   1.350       .  A
C17        C1846   1.473       .  S
C19          N20   1.366       .  A
C19          N24   1.366       .  A
C19        C1816   1.504       .  S
N20          C21   1.363       .  A
C21          N22   1.373       .  A
C21         C818   1.510       .  S
N22          C23   1.376       .  A
C23          N24   1.368       .  A
C23        C1829   1.515       .  S
C25          N26   1.352       .  A
C25          N30   1.354       .  A
C25        C1796   1.487       .  S
N26          C27   1.350       .  A
C27          N28   1.367       .  A
C27         C886   1.483       .  S
N28          C29   1.375       .  A
C29          N30   1.359       .  A
C29        C1806   1.483       .  S
C31          N32   1.352       .  A
C31          N36   1.355       .  A
C31        C1789   1.482       .  S
N32          C33   1.356       .  A
C33          N34   1.366       .  A
C33        C1779   1.462       .  S
N34          C35   1.361       .  A
C35          N36   1.353       .  A
C35         C806   1.472       .  S
C37          N38   1.366       .  A
C37          N42   1.374       .  A
C37        C1769   1.522       .  S
N38          C39   1.364   1_556  A
C39          N40   1.369       .  A
C39        C1759   1.500       .  S
N40          C41   1.368   1_554  A
C41          N42   1.373       .  A
C41         C528   1.513       .  S
C43          N44   1.358       .  A
C43          N48   1.351       .  A
C43        C1746   1.458       .  S
N44          C45   1.355       .  A
C45          N46   1.353   1_556  A
C45         C561   1.456       .  S
N46          C47   1.355       .  A
C47          N48   1.351   1_554  A
C47        C1736   1.474       .  S
O49          C76   1.265       .  A
O49         Mn75   2.067       .  S
C50        C1889   1.471       .  S
C50          O83   1.269       .  A
C50          O80   1.260       .  A
O51         Mn58   2.187       .  S
O51         Mn69   2.095       .  S
O51         Mn73   2.177       .  S
O51         Mn75   2.111       .  S
O52          C62   1.264       .  A
O52         Mn86   2.058       .  S
O53          C76   1.265       .  A
O53         Mn69   2.062       .  S
O54          C81   1.267       .  A
O54         Mn73   2.179       .  S
O55         Mn86   1.985       .  S
O55         Mn75   1.986       .  S
O55          C71   1.222       .  S
C56        C1696   1.494       .  S
C56          O59   1.267       .  A
C56          O82   1.226       .  A
O57         Mn77   2.091       .  S
O57         Mn58   2.188       .  S
O57         Mn91   2.103       .  S
O57         Mn73   2.167       .  S
Mn58         O87   2.194       .  S
Mn58         O63   2.181       .  S
Mn58         O90   2.206       .  S
Mn58         O64   2.187       .  S
O59         Mn73   2.186       .  S
O60          C62   1.268       .  A
O60         Mn67   2.089       .  S
C61        C1679   1.527       .  S
C61          O87   1.269       .  A
C61          O74   1.216       .  S
C62        C1706   1.470       .  S
O63          C88   1.267       .  A
O64         Mn67   2.104       .  S
O64         Mn86   2.085       .  S
O64         Mn73   2.182       .  S
O65         Mn69   1.939       .  S
O65         Mn91   1.920       .  S
O65          C88   1.209       .  S
C66        C1749   1.450       .  S
C66          O92   1.265       .  A
C66          O68   1.269       .  A
Mn67         O80   2.045       .  S
Mn67         O82   1.988       .  S
Mn67         O74   1.969       .  S
O68         Mn91   2.086       .  S
Mn69         O85   2.083       .  S
Mn69         O79   1.964       .  S
O70          C72   1.272       .  A
O70         Mn75   2.090       .  S
C71        C1719   1.508       .  S
C71          O89   1.267       .  A
C72        C1666   1.485       .  S
C72          O85   1.270       .  A
Mn73         O89   2.158       .  S
O74         Mn77   1.968       .  S
Mn75         O93   1.988       .  S
C76        C1726   1.441       .  S
Mn77         O84   2.066       .  S
Mn77         O92   2.066       .  S
Mn77         O82   1.987       .  S
C78        C1686   1.455       .  S
C78          O84   1.267       .  A
C78          O94   1.264       .  A
O79         Mn91   1.957       .  S
O79          C81   1.216       .  S
C81        C1766   1.516       .  S
O83         Mn86   2.089       .  S
Mn86         O93   1.995       .  S
C88        C1656   1.507       .  S
O90          C95   1.272       .  A
Mn91         O94   2.056       .  S
O93          C95   1.231       .  A
C95        C1869   1.517       .  S
C96          N97   1.347       .  A
C96         N101   1.354       .  A
C96        C1646   1.448   1_545  S
N97          C98   1.350       .  A
C98          N99   1.360       .  A
C98        C1639   1.476       .  S
N99         C100   1.355       .  A
C100        N101   1.351       .  A
C100        C483   1.456       .  S
C102        N103   1.367       .  A
C102        N107   1.367       .  A
C102       C1626   1.506   1_545  S
N103        C104   1.364       .  A
C104        N105   1.371       .  A
C104        C573   1.510       .  S
N105        C106   1.375       .  A
C106        N107   1.368       .  A
C106       C1619   1.512       .  S
O108        C135   1.271       .  A
O108       Mn134   2.092       .  S
C109       C1849   1.464       .  S
C109        O142   1.270       .  A
C109        O139   1.265       .  A
O110       Mn117   2.181       .  S
O110       Mn128   2.093       .  S
O110       Mn132   2.175       .  S
O110       Mn134   2.092       .  S
O111        C121   1.265       .  A
O111       Mn145   2.069       .  S
O112        C135   1.269       .  A
O112       Mn128   2.079       .  S
O113        C140   1.268       .  A
O113       Mn132   2.159       .  S
O114       Mn145   1.985       .  S
O114       Mn134   1.989       .  S
O114        C130   1.224       .  A
C115       C1579   1.518       .  S
C115        O118   1.266       .  A
C115        O141   1.218       .  S
O116       Mn136   2.094       .  S
O116       Mn117   2.180       .  S
O116       Mn150   2.114       .  S
O116       Mn132   2.174       .  S
Mn117       O146   2.185       .  S
Mn117       O122   2.163       .  S
Mn117       O149   2.192       .  S
Mn117       O123   2.169       .  S
O118       Mn132   2.177       .  S
O119        C121   1.267       .  A
O119       Mn126   2.076       .  S
C120       C1559   1.505       .  S
C120        O146   1.266       .  A
C120        O133   1.207       .  S
C121       C1589   1.444       .  S
O122        C147   1.265       .  A
O123       Mn126   2.096       .  S
O123       Mn145   2.087       .  S
O123       Mn132   2.169       .  S
O124       Mn128   1.952       .  S
O124       Mn150   1.947       .  S
O124        C147   1.219       .  S
C125       C1649   1.441       .  S
C125        O151   1.263       .  A
C125        O127   1.267       .  A
Mn126       O139   2.060       .  S
Mn126       O141   1.959       .  S
Mn126       O133   1.917       .  S
O127       Mn150   2.079       .  S
Mn128       O144   2.097       .  S
Mn128       O138   1.967       .  S
O129        C131   1.259       .  A
O129       Mn134   2.045       .  S
C130       C1596   1.494       .  S
C130        O148   1.267       .  A
C131       C1546   1.472       .  S
C131        O144   1.271       .  A
Mn132       O148   2.191       .  S
O133       Mn136   1.931       .  S
Mn134       O152   1.976       .  S
C135       C1606   1.485       .  S
Mn136       O143   2.078       .  S
Mn136       O151   2.049       .  S
Mn136       O141   1.968       .  S
C137       C1566   1.482       .  S
C137        O143   1.269       .  A
C137        O153   1.271       .  A
O138       Mn150   1.967       .  S
O138        C140   1.224       .  S
C140       C1629   1.514       .  S
O142       Mn145   2.075       .  S
Mn145       O152   1.978       .  S
C147       C1539   1.506       .  S
O149        C154   1.269       .  A
Mn150       O153   2.087       .  S
O152        C154   1.215       .  S
C154       C1826   1.525       .  S
C155        N156   1.353       .  A
C155        N160   1.355       .  A
C155       C1526   1.484       .  S
N156        C157   1.357   1_655  A
C157        N158   1.376       .  A
C157       C1516   1.484       .  S
N158        C159   1.371   1_455  A
C159        N160   1.354       .  A
C159        C506   1.491       .  S
C161        N162   1.351       .  A
C161        N166   1.355       .  A
C161       C1496   1.475   1_655  S
N162        C163   1.349       .  A
C163        N164   1.363       .  A
C163        C516   1.471       .  S
N164        C165   1.369       .  A
C165        N166   1.358       .  A
C165       C1509   1.478       .  S
O167        C194   1.269       .  A
O167       Mn193   2.077       .  S
C168       C1799   1.488       .  S
C168        O201   1.268       .  A
C168        O198   1.273       .  A
O169       Mn176   2.170       .  S
O169       Mn187   2.093       .  S
O169       Mn191   2.161       .  S
O169       Mn193   2.098       .  S
O170        C180   1.273       .  A
O170       Mn204   2.103       .  S
O171        C194   1.274       .  A
O171       Mn187   2.099       .  S
O172        C199   1.257       .  A
O172       Mn191   2.134       .  S
O173       Mn204   1.947       .  S
O173       Mn193   1.944       .  S
O173        C189   1.212       .  S
C174       C1486   1.483       .  S
C174        O177   1.254       .  A
C174        O200   1.213       .  S
O175       Mn195   2.094       .  S
O175       Mn176   2.168       .  S
O175       Mn209   2.091       .  S
O175       Mn191   2.166       .  S
Mn176       O205   2.137       .  S
Mn176       O181   2.130       .  S
Mn176       O208   2.123       .  S
Mn176       O182   2.171       .  S
O177       Mn191   2.118       .  S
O178        C180   1.267       .  A
O178       Mn185   2.067       .  S
C179       C1776   1.485       .  S
C179        O205   1.256       .  A
C179        O192   1.210       .  S
C180       C1459   1.484       .  S
O181        C206   1.255       .  A
O182       Mn185   2.095       .  S
O182       Mn204   2.093       .  S
O182       Mn191   2.173       .  S
O183       Mn187   1.943       .  S
O183       Mn209   1.953       .  S
O183        C206   1.210       .  S
C184       C1476   1.482       .  S
C184        O210   1.273       .  A
C184        O186   1.270       .  A
Mn185       O198   2.102       .  S
Mn185       O200   1.945       .  S
Mn185       O192   1.941       .  S
O186       Mn209   2.079       .  S
Mn187       O203   2.080       .  S
Mn187       O197   1.956       .  S
O188        C190   1.272       .  A
O188       Mn193   2.099       .  S
C189       C1466   1.485       .  S
C189        O207   1.255       .  A
C190       C1436   1.473       .  S
C190        O203   1.270       .  A
Mn191       O207   2.131       .  S
O192       Mn195   1.938       .  S
Mn193       O211   1.950       .  S
C194       C1529   1.488       .  S
Mn195       O202   2.074       .  S
Mn195       O210   2.097       .  S
Mn195       O200   1.953       .  S
C196       C1416   1.491       .  S
C196        O202   1.268       .  A
C196        O212   1.275       .  A
O197       Mn209   1.947       .  S
O197        C199   1.212       .  S
C199       C1506   1.490       .  S
O201       Mn204   2.074       .  S
Mn204       O211   1.949       .  S
C206       C1426   1.483       .  S
O208        C213   1.255       .  A
Mn209       O212   2.107       .  S
O211        C213   1.213       .  S
C213       C1446   1.481       .  S
C214        N215   1.354   1_556  A
C214        N219   1.355       .  A
C214       C1409   1.475       .  S
N215        C216   1.356       .  A
C216        N217   1.364       .  A
C216       C1489   1.467       .  S
N217        C218   1.359       .  A
C218        N219   1.351   1_554  A
C218        C562   1.467       .  S
C220        N221   1.353       .  A
C220        N225   1.358   1_554  A
C220       C1479   1.491       .  S
N221        C222   1.350   1_554  A
C222        N223   1.367       .  A
C222        C539   1.485       .  S
N223        C224   1.374       .  A
C224        N225   1.362       .  A
C224       C1396   1.484       .  S
C226        N227   1.369       .  A
C226        N231   1.373       .  A
C226       C1386   1.513       .  S
N227        C228   1.368   1_655  A
C228        N229   1.366       .  A
C228       C1716   1.511       .  S
N229        C230   1.362   1_455  A
C230        N231   1.370       .  A
C230        C507   1.505       .  S
C232        N233   1.356   1_655  A
C232        N237   1.348       .  A
C232       C1729   1.451   1_655  S
N233        C234   1.353   1_455  A
C234        N235   1.353       .  A
C234        C551   1.454       .  S
N235        C236   1.356       .  A
C236        N237   1.350       .  A
C236       C1376   1.458       .  S
O238        C265   1.266       .  A
O238       Mn264   2.064       .  S
C239       C1316   1.436       .  S
C239        O272   1.260       .  A
C239        O269   1.264       .  A
O240       Mn247   2.162       .  S
O240       Mn258   2.088       .  S
O240       Mn262   2.179       .  S
O240       Mn264   2.102       .  S
O241        C251   1.267       .  A
O241       Mn275   2.074       .  S
O242        C265   1.269       .  A
O242       Mn258   2.078       .  S
O243        C270   1.267       .  A
O243       Mn262   2.176       .  S
O244       Mn275   1.991       .  S
O244       Mn264   1.985       .  S
O244        C260   1.230       .  A
C245       C1366   1.512       .  S
C245        O248   1.270       .  A
C245        O271   1.232       .  A
O246       Mn266   2.090       .  S
O246       Mn247   2.173       .  S
O246       Mn280   2.099       .  S
O246       Mn262   2.190       .  S
Mn247       O276   2.154       .  S
Mn247       O252   2.189       .  S
Mn247       O279   2.170       .  S
Mn247       O253   2.181       .  S
O248       Mn262   2.198       .  S
O249        C251   1.272       .  A
O249       Mn256   2.090       .  S
C250       C1326   1.511       .  S
C250        O276   1.266       .  A
C250        O263   1.224       .  S
C251       C1406   1.479       .  S
O252        C277   1.269       .  A
O253       Mn256   2.107       .  S
O253       Mn275   2.097       .  S
O253       Mn262   2.180       .  S
O254       Mn258   1.994       .  S
O254       Mn280   1.994       .  S
O254        C277   1.228       .  A
C255       C1356   1.467       .  S
C255        O281   1.267       .  A
C255        O257   1.258       .  A
Mn256       O269   2.060       .  S
Mn256       O271   1.988       .  S
Mn256       O263   1.988       .  S
O257       Mn280   2.040       .  S
Mn258       O274   2.079       .  S
Mn258       O268   1.981       .  S
O259        C261   1.266       .  A
O259       Mn264   2.072       .  S
C260       C1399   1.498       .  S
C260        O278   1.270       .  A
C261       C1296   1.447       .  S
C261        O274   1.268       .  A
Mn262       O278   2.184       .  S
O263       Mn266   1.982       .  S
Mn264       O282   1.977       .  S
C265       C1379   1.453       .  S
Mn266       O273   2.060       .  S
Mn266       O281   2.089       .  S
Mn266       O271   1.993       .  S
C267       C1339   1.482       .  S
C267        O273   1.265       .  A
C267        O283   1.272       .  A
O268       Mn280   1.980       .  S
O268        C270   1.219       .  S
C270       C1389   1.520       .  S
O272       Mn275   2.035       .  S
Mn275       O282   1.982       .  S
C277       C1346   1.497       .  S
O279        C284   1.265       .  A
Mn280       O283   2.099       .  S
O282        C284   1.220       .  S
C284       C1306   1.518       .  S
C285        N286   1.353   1_556  A
C285        N290   1.354       .  A
C285       C1286   1.474       .  S
N286        C287   1.357       .  A
C287        N288   1.375       .  A
C287       C1599   1.485       .  S
N288        C289   1.368       .  A
C289        N290   1.354   1_554  A
C289        C527   1.486       .  S
C291        N292   1.354   1_554  A
C291        N296   1.355       .  A
C291       C1609   1.488       .  S
N292        C293   1.358       .  A
C293        N294   1.367       .  A
C293       C1276   1.470       .  S
N294        C295   1.358       .  A
C295        N296   1.353   1_556  A
C295        C596   1.472       .  S
C297        N298   1.359       .  A
C297        N302   1.370       .  A
C297       C1266   1.477   1_545  S
N298        C299   1.355       .  A
C299        N300   1.353       .  A
C299       C1709   1.480       .  S
N300        C301   1.351       .  A
C301        N302   1.362       .  A
C301        C482   1.476       .  S
C303        N304   1.356       .  A
C303        N308   1.354       .  A
C303       C1259   1.492       .  S
N304        C305   1.361       .  A
C305        N306   1.375       .  A
C305       C1699   1.487       .  S
N306        C307   1.365       .  A
C307        N308   1.352       .  A
C307        C584   1.486       .  S
O309        C336   1.273       .  A
O309       Mn335   2.096       .  S
C310       C1289   1.487       .  S
C310        O343   1.274       .  A
C310        O340   1.269       .  A
O311       Mn318   2.168       .  S
O311       Mn329   2.105       .  S
O311       Mn333   2.169       .  S
O311       Mn335   2.089       .  S
O312        C322   1.267       .  A
O312       Mn346   2.069       .  S
O313        C336   1.270       .  A
O313       Mn329   2.080       .  S
O314        C341   1.254       .  A
O314       Mn333   2.117       .  S
O315       Mn346   1.940       .  S
O315       Mn335   1.945       .  S
O315        C331   1.210       .  S
C316       C1176   1.485       .  S
C316        O319   1.255       .  A
C316        O342   1.214       .  S
O317       Mn337   2.110       .  S
O317       Mn318   2.171       .  S
O317       Mn351   2.092       .  S
O317       Mn333   2.169       .  S
Mn318       O347   2.121       .  S
Mn318       O323   2.146       .  S
Mn318       O350   2.133       .  S
Mn318       O324   2.175       .  S
O319       Mn333   2.125       .  S
O320        C322   1.274       .  A
O320       Mn327   2.105       .  S
C321       C1239   1.476       .  S
C321        O347   1.255       .  A
C321        O334   1.214       .  S
C322       C1186   1.488       .  S
O323        C348   1.258       .  A
O324       Mn327   2.099       .  S
O324       Mn346   2.097       .  S
O324       Mn333   2.167       .  S
O325       Mn329   1.952       .  S
O325       Mn351   1.943       .  S
O325        C348   1.211       .  S
C326       C1229   1.483       .  S
C326        O352   1.268       .  A
C326        O328   1.273       .  A
Mn327       O340   2.078       .  S
Mn327       O342   1.954       .  S
Mn327       O334   1.952       .  S
O328       Mn351   2.090       .  S
Mn329       O345   2.111       .  S
Mn329       O339   1.951       .  S
O330        C332   1.266       .  A
O330       Mn335   2.067       .  S
C331       C1196   1.489       .  S
C331        O349   1.255       .  A
C332       C1256   1.486       .  S
C332        O345   1.274       .  A
Mn333       O349   2.135       .  S
O334       Mn337   1.946       .  S
Mn335       O353   1.945       .  S
C336       C1206   1.488       .  S
Mn337       O344   2.101       .  S
Mn337       O352   2.074       .  S
Mn337       O342   1.942       .  S
C338       C1246   1.482       .  S
C338        O344   1.272       .  A
C338        O354   1.267       .  A
O339       Mn351   1.954       .  S
O339        C341   1.215       .  S
C341       C1216   1.477       .  S
O343       Mn346   2.100       .  S
Mn346       O353   1.948       .  S
C348       C1269   1.489       .  S
O350        C355   1.256       .  A
Mn351       O354   2.071       .  S
O353        C355   1.210       .  S
C355       C1279   1.482       .  S
C356        N357   1.350       .  A
C356        N361   1.353       .  A
C356       C1166   1.474       .  S
N357        C358   1.350   1_655  A
C358        N359   1.359       .  A
C358       C1586   1.452       .  S
N359        C360   1.355   1_455  A
C360        N361   1.349       .  A
C360        C517   1.454       .  S
C362        N363   1.368       .  A
C362        N367   1.371       .  A
C362       C1156   1.505       .  S
N363        C364   1.368   1_655  A
C364        N365   1.371       .  A
C364       C1576   1.521       .  S
N365        C366   1.369   1_455  A
C366        N367   1.369       .  A
C366        C471   1.511       .  S
C368        N369   1.350       .  A
C368        N373   1.354       .  A
C368       C1146   1.479       .  S
N369        C370   1.349       .  A
C370        N371   1.363       .  A
C370        C494   1.468       .  S
N371        C372   1.368       .  A
C372        N373   1.356       .  A
C372       C1469   1.467       .  S
C374        N375   1.377       .  A
C374        N379   1.360       .  A
C374       C1136   1.484   1_545  S
N375        C376   1.369       .  A
C376        N377   1.349       .  A
C376        C572   1.486       .  S
N377        C378   1.351       .  A
C378        N379   1.355       .  A
C378       C1456   1.487       .  S
O380        C407   1.264       .  A
O380       Mn406   2.069       .  S
C381       C1169   1.470       .  S
C381        O414   1.262       .  A
C381        O411   1.270       .  A
O382       Mn389   2.171       .  S
O382       Mn400   2.102       .  S
O382       Mn404   2.172       .  S
O382       Mn406   2.087       .  S
O383        C393   1.275       .  A
O383       Mn417   2.106       .  S
O384        C407   1.268       .  A
O384       Mn400   2.083       .  S
O385        C412   1.265       .  A
O385       Mn404   2.173       .  S
O386       Mn417   1.940       .  S
O386       Mn406   1.940       .  S
O386        C402   1.209       .  S
C387       C1106   1.517       .  S
C387        O390   1.267       .  A
C387        O413   1.222       .  S
O388       Mn408   2.118       .  S
O388       Mn389   2.179       .  S
O388       Mn422   2.094       .  S
O388       Mn404   2.174       .  S
Mn389       O418   2.175       .  S
Mn389       O394   2.172       .  S
Mn389       O421   2.185       .  S
Mn389       O395   2.178       .  S
O390       Mn404   2.167       .  S
O391        C393   1.269       .  A
O391       Mn398   2.075       .  S
C392       C1159   1.516       .  S
C392        O418   1.266       .  A
C392        O405   1.217       .  S
C393       C1056   1.487       .  S
O394        C419   1.266       .  A
O395       Mn398   2.092       .  S
O395       Mn417   2.106       .  S
O395       Mn404   2.169       .  S
O396       Mn400   1.925       .  S
O396       Mn422   1.943       .  S
O396        C419   1.211       .  S
C397       C1099   1.447       .  S
C397        O423   1.267       .  A
C397        O399   1.265       .  A
Mn398       O411   2.090       .  S
Mn398       O413   1.971       .  S
Mn398       O405   1.953       .  S
O399       Mn422   2.053       .  S
Mn400       O416   2.061       .  S
Mn400       O410   1.953       .  S
O401        C403   1.273       .  A
O401       Mn406   2.095       .  S
C402       C1069   1.496       .  S
C402        O420   1.266       .  A
C403       C1119   1.469       .  S
C403        O416   1.265       .  A
Mn404       O420   2.174       .  S
O405       Mn408   1.942       .  S
Mn406       O424   1.964       .  S
C407       C1076   1.452       .  S
Mn408       O415   2.083       .  S
Mn408       O423   2.082       .  S
Mn408       O413   1.959       .  S
C409       C1149   1.480       .  S
C409        O415   1.270       .  A
C409        O425   1.270       .  A
O410       Mn422   1.958       .  S
O410        C412   1.216       .  S
C412       C1086   1.515       .  S
O414       Mn417   2.050       .  S
Mn417       O424   1.961       .  S
C419       C1139   1.506       .  S
O421        C426   1.267       .  A
Mn422       O425   2.075       .  S
O424        C426   1.217       .  S
C426       C1126   1.524       .  S
C427        N428   1.352       .  A
C427        N432   1.358       .  A
C427       C1116   1.474       .  S
N428        C429   1.350   1_554  A
C429        N430   1.354       .  A
C429       C1046   1.446       .  S
N430        C431   1.349       .  A
C431        N432   1.354   1_556  A
C431        C597   1.454       .  S
C433        N434   1.369       .  A
C433        N438   1.368   1_556  A
C433       C1039   1.515       .  S
N434        C435   1.366   1_556  A
C435        N436   1.372       .  A
C435        C538   1.517       .  S
N436        C437   1.377       .  A
C437        N438   1.368       .  A
C437       C1129   1.516       .  S
C439        N440   1.353       .  A
C439        N444   1.353       .  A
C439       C1359   1.473       .  S
N440        C441   1.347       .  A
C441        N442   1.355       .  A
C441        C493   1.457       .  S
N442        C443   1.360       .  A
C443        N444   1.353       .  A
C443       C1026   1.463   1_545  S
C445        N446   1.372       .  A
C445        N450   1.364       .  A
C445       C1369   1.501       .  S
N446        C447   1.370       .  A
C447        N448   1.368       .  A
C447        C583   1.512       .  S
N448        C449   1.371       .  A
C449        N450   1.366       .  A
C449       C1016   1.515   1_545  S
C451        N452   1.355       .  A
C451        N456   1.354       .  A
C451       C1249   1.489   1_655  S
N452        C453   1.359       .  A
C453        N454   1.375       .  A
C453       C1006   1.484       .  S
N454        C455   1.367       .  A
C455        N456   1.351       .  A
C455        C472   1.486       .  S
C457        N458   1.353       .  A
C457        N462   1.351       .  A
C457        C996   1.483       .  S
N458        C459   1.352       .  A
C459        N460   1.360   1_655  A
C459        C552   1.469       .  S
N460        C461   1.365       .  A
C461        N462   1.355   1_455  A
C461       C1236   1.458       .  S
N463        N464   1.331       .  A
N463        N469   1.315       .  A
N463       Mn492   2.246   1_565  S
N464        C471   1.362       .  A
N465        N467   1.314       .  A
N465        N466   1.320       .  A
N465       Mn481   2.213   1_665  S
N466        C472   1.355       .  A
N467        N468   1.330       .  A
N467       Mn492   2.225   1_565  S
N468        C472   1.356       .  A
N469        N470   1.328       .  A
N469       Mn481   2.246   1_665  S
N470        C471   1.359       .  A
N473        N479   1.319       .  A
N473        N474   1.317       .  A
N473       Mn503   2.209       .  S
N474        C482   1.351       .  A
N475        N476   1.319       .  A
N475        N477   1.319       .  A
N475       Mn481   2.191       .  S
N476        C483   1.348       .  A
N477        N478   1.320       .  A
N477       Mn503   2.198       .  S
N478        C483   1.348       .  A
N479        N480   1.328       .  A
N479       Mn481   2.227       .  S
N480        C482   1.356       .  A
Mn481      Cl505   2.551   1_455  S
N484        N485   1.320       .  A
N484        N490   1.319       .  A
N484       Mn492   2.190       .  S
N485        C493   1.346       .  A
N486        N488   1.318       .  A
N486        N487   1.326       .  A
N486       Mn504   2.211       .  S
N487        C494   1.352       .  A
N488        N489   1.316       .  A
N488       Mn492   2.205       .  S
N489        C494   1.351       .  A
N490        N491   1.318       .  A
N490       Mn504   2.201       .  S
N491        C493   1.350       .  A
Mn492      Cl505   2.554       .  S
N495        N496   1.331   1_655  A
N495        N501   1.314       .  A
N495       Mn503   2.227   1_655  S
N496        C506   1.357   1_455  A
N497        N498   1.329       .  A
N497        N499   1.315       .  A
N497       Mn504   2.232       .  S
N498        C507   1.358       .  A
N499        N500   1.328   1_655  A
N499       Mn503   2.247   1_655  S
N500        C507   1.362   1_455  A
N501        N502   1.321       .  A
N501       Mn504   2.221       .  S
N502        C506   1.356       .  A
Mn503      Cl505   2.551   1_455  S
Mn504      Cl505   2.550       .  S
N508        N509   1.325       .  A
N508        N514   1.320       .  A
N508       Mn537   2.216       .  S
N509        C516   1.352       .  A
N510        N512   1.319       .  A
N510        N511   1.321   1_655  A
N510       Mn526   2.199   1_655  S
N511        C517   1.348   1_455  A
N512        N513   1.316       .  A
N512       Mn537   2.189       .  S
N513        C517   1.348       .  A
N514        N515   1.318       .  A
N514       Mn526   2.214   1_655  S
N515        C516   1.353       .  A
N518        N524   1.315   1_556  A
N518        N519   1.319       .  A
N518       Mn548   2.205       .  S
N519        C527   1.353   1_556  A
N520        N521   1.331       .  A
N520        N522   1.316   1_554  A
N520       Mn526   2.258       .  S
N521        C528   1.363   1_554  A
N522        N523   1.329       .  A
N522       Mn548   2.242       .  S
N523        C528   1.359       .  A
N524        N525   1.330       .  A
N524       Mn526   2.231       .  S
N525        C527   1.358       .  A
Mn526      Cl550   2.551   1_455  S
N529        N530   1.333       .  A
N529        N535   1.315   1_554  A
N529       Mn537   2.254       .  S
N530        C538   1.363       .  A
N531        N533   1.314   1_556  A
N531        N532   1.329       .  A
N531       Mn549   2.216       .  S
N532        C539   1.356       .  A
N533        N534   1.319       .  A
N533       Mn537   2.214       .  S
N534        C539   1.355   1_554  A
N535        N536   1.329       .  A
N535       Mn549   2.250       .  S
N536        C538   1.361   1_556  A
Mn537      Cl550   2.554       .  S
N540        N541   1.319   1_655  A
N540        N546   1.318       .  A
N540       Mn548   2.185   1_655  S
N541        C551   1.347   1_455  A
N542        N543   1.315       .  A
N542        N544   1.318       .  A
N542       Mn549   2.194       .  S
N543        C552   1.349       .  A
N544        N545   1.327   1_655  A
N544       Mn548   2.224   1_655  S
N545        C552   1.356   1_455  A
N546        N547   1.318       .  A
N546       Mn549   2.201       .  S
N547        C551   1.349       .  A
Mn548      Cl550   2.557   1_456  S
Mn549      Cl550   2.548   1_556  S
N553        N554   1.319       .  A
N553        N559   1.321   1_556  A
N553       Mn582   2.197       .  S
N554        C561   1.349       .  A
N555        N557   1.319   1_554  A
N555        N556   1.323       .  A
N555       Mn571   2.213       .  S
N556        C562   1.352       .  A
N557        N558   1.318       .  A
N557       Mn582   2.206       .  S
N558        C562   1.352   1_556  A
N559        N560   1.316       .  A
N559       Mn571   2.196       .  S
N560        C561   1.350   1_554  A
N563        N569   1.313       .  A
N563        N564   1.330       .  A
N563       Mn593   2.209       .  S
N564        C572   1.354       .  A
N565        N566   1.331       .  A
N565        N567   1.315       .  A
N565       Mn571   2.243       .  S
N566        C573   1.360       .  A
N567        N568   1.328       .  A
N567       Mn593   2.245       .  S
N568        C573   1.361       .  A
N569        N570   1.320       .  A
N569       Mn571   2.221       .  S
N570        C572   1.356       .  A
Mn571      Cl595   2.547   1_554  S
N574        N575   1.331       .  A
N574        N580   1.316       .  A
N574       Mn582   2.244       .  S
N575        C583   1.361       .  A
N576        N578   1.315       .  A
N576        N577   1.319       .  A
N576       Mn594   2.208       .  S
N577        C584   1.353       .  A
N578        N579   1.330       .  A
N578       Mn582   2.230       .  S
N579        C584   1.358       .  A
N580        N581   1.330       .  A
N580       Mn594   2.253       .  S
N581        C583   1.361       .  A
Mn582      Cl595   2.555       .  S
N585        N586   1.315       .  A
N585        N591   1.318   1_554  A
N585       Mn593   2.189   1_565  S
N586        C596   1.347   1_554  A
N587        N588   1.320       .  A
N587        N589   1.318   1_556  A
N587       Mn594   2.189   1_565  S
N588        C597   1.348       .  A
N589        N590   1.318       .  A
N589       Mn593   2.193   1_565  S
N590        C597   1.346   1_554  A
N591        N592   1.328       .  A
N591       Mn594   2.236   1_565  S
N592        C596   1.358       .  A
Mn593      Cl595   2.553   1_554  S
Mn594      Cl595   2.551       .  S
O598        C625   1.272       .  A
O598       Mn624   2.101       .  S
C599       C1049   1.440       .  S
C599        O632   1.266       .  A
C599        O629   1.265       .  A
O600       Mn607   2.170       .  S
O600       Mn618   2.097       .  S
O600       Mn622   2.177       .  S
O600       Mn624   2.085       .  S
O601        C611   1.271       .  A
O601       Mn635   2.088       .  S
O602        C625   1.258       .  A
O602       Mn618   2.045       .  S
O603        C630   1.267       .  A
O603       Mn622   2.178       .  S
O604       Mn635   1.934       .  S
O604       Mn624   1.941       .  S
O604        C620   1.213       .  S
C605        C956   1.500       .  S
C605        O608   1.265       .  A
C605        O631   1.212       .  S
O606       Mn626   2.097       .  S
O606       Mn607   2.174       .  S
O606       Mn640   2.091       .  S
O606       Mn622   2.179       .  S
Mn607       O636   2.172       .  S
Mn607       O612   2.187       .  S
Mn607       O639   2.164       .  S
Mn607       O613   2.174       .  S
O608       Mn622   2.166       .  S
O609        C611   1.269       .  A
O609       Mn616   2.077       .  S
C610       C1019   1.513       .  S
C610        O636   1.264       .  A
C610        O623   1.216       .  S
C611        C966   1.482       .  S
O612        C637   1.268       .  A
O613       Mn616   2.099       .  S
O613       Mn635   2.111       .  S
O613       Mn622   2.177       .  S
O614       Mn618   1.992       .  S
O614       Mn640   1.989       .  S
O614        C637   1.226       .  A
C615        C986   1.461       .  S
C615        O641   1.265       .  A
C615        O617   1.270       .  A
Mn616       O629   2.061       .  S
Mn616       O631   1.942       .  S
Mn616       O623   1.960       .  S
O617       Mn640   2.078       .  S
Mn618       O634   2.092       .  S
Mn618       O628   1.981       .  S
O619        C621   1.267       .  A
O619       Mn624   2.067       .  S
C620        C936   1.520       .  S
C620        O638   1.266       .  A
C621        C999   1.481       .  S
C621        O634   1.271       .  A
Mn622       O638   2.189       .  S
O623       Mn626   1.956       .  S
Mn624       O642   1.974       .  S
C625        C946   1.474       .  S
Mn626       O633   2.089       .  S
Mn626       O641   2.061       .  S
Mn626       O631   1.927       .  S
C627       C1029   1.457       .  S
C627        O633   1.270       .  A
C627        O643   1.266       .  A
O628       Mn640   1.979       .  S
O628        C630   1.217       .  S
C630        C976   1.522       .  S
O632       Mn635   2.072       .  S
Mn635       O642   1.972       .  S
C637       C1009   1.495       .  S
O639        C644   1.269       .  A
Mn640       O643   2.076       .  S
O642        C644   1.225       .  S
C644       C1036   1.515       .  S
C645        N646   1.358       .  A
C645        N650   1.368       .  A
C645       C1219   1.465       .  S
N646        C647   1.353       .  A
C647        N648   1.347       .  A
C647       C1569   1.481       .  S
N648        C649   1.348       .  A
C649        N650   1.363       .  A
C649        C862   1.467       .  S
C651        N652   1.352       .  A
C651        N656   1.353       .  A
C651       C1226   1.482       .  S
N652        C653   1.353       .  A
C653        N654   1.370       .  A
C653        C796   1.485       .  S
N654        C655   1.375       .  A
C655        N656   1.356       .  A
C655       C1556   1.483       .  S
C657        N658   1.357       .  A
C657        N662   1.353       .  A
C657       C1439   1.485       .  S
N658        C659   1.361       .  A
C659        N660   1.376       .  A
C659       C1349   1.489       .  S
N660        C661   1.366       .  A
C661        N662   1.351       .  A
C661        C762   1.486       .  S
C663        N664   1.355       .  A
C663        N668   1.354       .  A
C663       C1336   1.487       .  S
N664        C665   1.359       .  A
C665        N666   1.366       .  A
C665       C1449   1.468       .  S
N666        C667   1.357       .  A
C667        N668   1.352       .  A
C667        C874   1.469       .  S
C669        N670   1.349       .  A
C669        N674   1.357       .  A
C669       C1096   1.456       .  S
N670        C671   1.351       .  A
C671        N672   1.357       .  A
C671        C989   1.468       .  S
N672        C673   1.353       .  A
C673        N674   1.352       .  A
C673        C873   1.458       .  S
C675        N676   1.374       .  A
C675        N680   1.368       .  A
C675        C979   1.509       .  S
N676        C677   1.372       .  A
C677        N678   1.364       .  A
C677        C797   1.511       .  S
N678        C679   1.367       .  A
C679        N680   1.366       .  A
C679       C1109   1.504       .  S
C681        N682   1.355       .  A
C681        N686   1.351       .  A
C681       C1689   1.462       .  S
N682        C683   1.350       .  A
C683        N684   1.350       .  A
C683        C807   1.446       .  S
N684        C685   1.352       .  A
C685        N686   1.348       .  A
C685       C1319   1.451       .  S
C687        N688   1.368       .  A
C687        N692   1.367       .  A
C687       C1329   1.509       .  S
N688        C689   1.365       .  A
C689        N690   1.373       .  A
C689        C851   1.512       .  S
N690        C691   1.375       .  A
C691        N692   1.366       .  A
C691       C1676   1.511       .  S
C693        N694   1.370       .  A
C693        N698   1.364       .  A
C693       C1536   1.499       .  S
N694        C695   1.370       .  A
C695        N696   1.371       .  A
C695        C887   1.510       .  S
N696        C697   1.371       .  A
C697        N698   1.364       .  A
C697       C1089   1.515       .  S
C699        N700   1.360       .  A
C699        N704   1.350       .  A
C699       C1079   1.461       .  S
N700        C701   1.355       .  A
C701        N702   1.352       .  A
C701        C841   1.462       .  S
N702        C703   1.357       .  A
C703        N704   1.351       .  A
C703       C1549   1.476       .  S
C705        N706   1.359       .  A
C705        N710   1.365       .  A
C705       C1429   1.465       .  S
N706        C707   1.355       .  A
C707        N708   1.356       .  A
C707       C1059   1.482       .  S
N708        C709   1.353       .  A
C709        N710   1.358       .  A
C709        C783   1.471       .  S
C711        N712   1.360       .  A
C711        N716   1.373       .  A
C711       C1066   1.490       .  S
N712        C713   1.356       .  A
C713        N714   1.356       .  A
C713       C1419   1.488       .  S
N714        C715   1.353       .  A
C715        N716   1.364       .  A
C715        C829   1.484       .  S
C717        N718   1.354       .  A
C717        N722   1.353       .  A
C717        C969   1.475       .  S
N718        C719   1.356       .  A
C719        N720   1.368       .  A
C719       C1199   1.470       .  S
N720        C721   1.362       .  A
C721        N722   1.350       .  A
C721        C842   1.472       .  S
C723        N724   1.353       .  A
C723        N728   1.355       .  A
C723       C1209   1.483       .  S
N724        C725   1.352       .  A
C725        N726   1.367       .  A
C725        C852   1.481       .  S
N726        C727   1.373       .  A
C727        N728   1.359       .  A
C727        C959   1.481       .  S
C729        N730   1.351       .  A
C729        N734   1.357       .  A
C729        C949   1.477       .  S
N730        C731   1.350       .  A
C731        N732   1.358       .  A
C731       C1299   1.455       .  S
N732        C733   1.353       .  A
C733        N734   1.353       .  A
C733        C772   1.460       .  S
C735        N736   1.367       .  A
C735        N740   1.370       .  A
C735        C939   1.505       .  S
N736        C737   1.369       .  A
C737        N738   1.373       .  A
C737       C1309   1.523       .  S
N738        C739   1.371       .  A
C739        N740   1.368       .  A
C739        C828   1.513       .  S
C741        N742   1.376       .  A
C741        N746   1.358       .  A
C741       C1659   1.485       .  S
N742        C743   1.371       .  A
C743        N744   1.352       .  A
C743        C817   1.489       .  S
N744        C745   1.354       .  A
C745        N746   1.353       .  A
C745       C1189   1.485       .  S
C747        N748   1.368       .  A
C747        N752   1.358       .  A
C747       C1179   1.469       .  S
N748        C749   1.364       .  A
C749        N750   1.350       .  A
C749        C773   1.472       .  S
N750        C751   1.351       .  A
C751        N752   1.354       .  A
C751       C1669   1.484       .  S
N753        N754   1.332       .  A
N753        N759   1.316       .  A
N753       Mn782   2.259   1_455  S
N754        C761   1.362       .  A
N755        N757   1.314       .  A
N755        N756   1.330       .  A
N755       Mn771   2.227       .  S
N756        C762   1.357       .  A
N757        N758   1.319       .  A
N757       Mn782   2.206       .  S
N758        C762   1.353       .  A
N759        N760   1.333       .  A
N759       Mn771   2.267   1_455  S
N760        C761   1.365       .  A
N763        N769   1.319       .  A
N763        N764   1.318       .  A
N763       Mn793   2.185       .  S
N764        C772   1.347       .  A
N765        N766   1.317       .  A
N765        N767   1.319       .  A
N765       Mn771   2.213   1_455  S
N766        C773   1.353       .  A
N767        N768   1.327       .  A
N767       Mn793   2.216   1_455  S
N768        C773   1.353       .  A
N769        N770   1.322       .  A
N769       Mn771   2.209       .  S
N770        C772   1.350       .  A
Mn771      Cl795   2.551       .  S
N774        N775   1.326       .  A
N774        N780   1.319       .  A
N774       Mn782   2.227       .  S
N775        C783   1.355       .  A
N776        N778   1.319   1_655  A
N776        N777   1.320   1_655  A
N776       Mn794   2.210       .  S
N777        C784   1.351       .  A
N778        N779   1.318       .  A
N778       Mn782   2.184   1_455  S
N779        C784   1.346       .  A
N780        N781   1.317       .  A
N780       Mn794   2.200       .  S
N781        C783   1.350       .  A
Mn782      Cl795   2.555       .  S
N785        N786   1.318       .  A
N785        N791   1.314   1_455  A
N785       Mn793   2.207   1_455  S
N786        C796   1.354       .  A
N787        N788   1.330       .  A
N787        N789   1.315       .  A
N787       Mn794   2.256       .  S
N788        C797   1.363       .  A
N789        N790   1.330       .  A
N789       Mn793   2.236       .  S
N790        C797   1.359       .  A
N791        N792   1.330   1_655  A
N791       Mn794   2.223       .  S
N792        C796   1.357       .  A
Mn793      Cl795   2.555       .  S
Mn794      Cl795   2.550       .  S
N798        N799   1.327       .  A
N798        N804   1.318       .  A
N798       Mn827   2.223       .  S
N799        C806   1.355       .  A
N800        N802   1.318       .  A
N800        N801   1.318       .  A
N800       Mn816   2.196   1_556  S
N801        C807   1.349       .  A
N802        N803   1.316       .  A
N802       Mn827   2.173   1_556  S
N803        C807   1.344       .  A
N804        N805   1.317       .  A
N804       Mn816   2.203       .  S
N805        C806   1.350       .  A
N808        N814   1.314       .  A
N808        N809   1.321       .  A
N808       Mn838   2.224       .  S
N809        C817   1.357       .  A
N810        N811   1.328       .  A
N810        N812   1.315       .  A
N810       Mn816   2.248       .  S
N811        C818   1.362       .  A
N812        N813   1.331       .  A
N812       Mn838   2.239   1_554  S
N813        C818   1.359       .  A
N814        N815   1.329       .  A
N814       Mn816   2.217   1_556  S
N815        C817   1.355       .  A
Mn816      Cl840   2.550   1_554  S
N819        N820   1.330       .  A
N819        N825   1.316       .  A
N819       Mn827   2.246   1_556  S
N820        C828   1.359       .  A
N821        N823   1.314       .  A
N821        N822   1.330       .  A
N821       Mn839   2.233   1_554  S
N822        C829   1.358       .  A
N823        N824   1.319       .  A
N823       Mn827   2.197       .  S
N824        C829   1.352       .  A
N825        N826   1.331       .  A
N825       Mn839   2.255       .  S
N826        C828   1.363       .  A
Mn827      Cl840   2.554   1_554  S
N830        N831   1.319       .  A
N830        N836   1.320       .  A
N830       Mn838   2.199   1_554  S
N831        C841   1.349       .  A
N832        N833   1.319       .  A
N832        N834   1.319       .  A
N832       Mn839   2.216       .  S
N833        C842   1.353       .  A
N834        N835   1.325       .  A
N834       Mn838   2.211       .  S
N835        C842   1.351       .  A
N836        N837   1.322       .  A
N836       Mn839   2.206   1_554  S
N837        C841   1.349       .  A
Mn838      Cl840   2.551       .  S
Mn839      Cl840   2.552       .  S
N843        N844   1.330       .  A
N843        N849   1.316       .  A
N843       Mn872   2.255       .  S
N844        C851   1.363       .  A
N845        N847   1.314       .  A
N845        N846   1.319   1_545  A
N845       Mn861   2.213       .  S
N846        C852   1.354       .  A
N847        N848   1.328   1_545  A
N847       Mn872   2.209       .  S
N848        C852   1.355       .  A
N849        N850   1.330       .  A
N849       Mn861   2.242       .  S
N850        C851   1.360       .  A
N853        N859   1.319       .  A
N853        N854   1.313   1_545  A
N853       Mn883   2.196       .  S
N854        C862   1.349       .  A
N855        N856   1.320       .  A
N855        N857   1.319       .  A
N855       Mn861   2.200       .  S
N856        C863   1.351       .  A
N857        N858   1.318       .  A
N857       Mn883   2.192       .  S
N858        C863   1.346       .  A
N859        N860   1.328   1_545  A
N859       Mn861   2.218       .  S
N860        C862   1.354       .  A
Mn861      Cl885   2.554       .  S
N864        N865   1.320   1_545  A
N864        N870   1.319       .  A
N864       Mn872   2.207       .  S
N865        C873   1.349       .  A
N866        N868   1.318       .  A
N866        N867   1.328       .  A
N866       Mn884   2.229       .  S
N867        C874   1.357       .  A
N868        N869   1.315       .  A
N868       Mn872   2.188       .  S
N869        C874   1.347       .  A
N870        N871   1.320   1_545  A
N870       Mn884   2.187       .  S
N871        C873   1.347       .  A
Mn872      Cl885   2.546       .  S
N875        N876   1.330       .  A
N875        N881   1.315       .  A
N875       Mn883   2.223       .  S
N876        C886   1.357       .  A
N877        N878   1.328   1_545  A
N877        N879   1.315       .  A
N877       Mn884   2.240       .  S
N878        C887   1.358       .  A
N879        N880   1.332   1_545  A
N879       Mn883   2.251       .  S
N880        C887   1.363       .  A
N881        N882   1.318       .  A
N881       Mn884   2.208       .  S
N882        C886   1.354       .  A
Mn883      Cl885   2.549       .  S
Mn884      Cl885   2.555       .  S
O888        C915   1.263       .  A
O888       Mn914   2.053       .  S
C889       C1636   1.469       .  S
C889        O922   1.264       .  A
C889        O919   1.272       .  A
O890       Mn897   2.187       .  S
O890       Mn908   2.117       .  S
O890       Mn912   2.177       .  S
O890       Mn914   2.097       .  S
O891        C901   1.269       .  A
O891       Mn925   2.085       .  S
O892        C915   1.268       .  A
O892       Mn908   2.083       .  S
O893        C920   1.271       .  A
O893       Mn912   2.173       .  S
O894       Mn925   1.950       .  S
O894       Mn914   1.952       .  S
O894        C910   1.213       .  S
C895       C1809   1.494       .  S
C895        O898   1.269       .  A
C895        O921   1.226       .  A
O896       Mn916   2.092       .  S
O896       Mn897   2.183       .  S
O896       Mn930   2.087       .  S
O896       Mn912   2.174       .  S
Mn897       O926   2.196       .  S
Mn897       O902   2.181       .  S
Mn897       O929   2.180       .  S
Mn897       O903   2.175       .  S
O898       Mn912   2.186       .  S
O899        C901   1.264       .  A
O899       Mn906   2.063       .  S
C900       C1616   1.525       .  S
C900        O926   1.269       .  A
C900        O913   1.214       .  S
C901       C1876   1.449       .  S
O902        C927   1.265       .  A
O903       Mn906   2.093       .  S
O903       Mn925   2.089       .  S
O903       Mn912   2.182       .  S
O904       Mn908   1.939       .  S
O904       Mn930   1.943       .  S
O904        C927   1.214       .  S
C905       C1786   1.483       .  S
C905        O931   1.271       .  A
C905        O907   1.271       .  A
Mn906       O919   2.087       .  S
Mn906       O921   1.988       .  S
Mn906       O913   1.973       .  S
O907       Mn930   2.085       .  S
Mn908       O924   2.089       .  S
Mn908       O918   1.968       .  S
O909        C911   1.268       .  A
O909       Mn914   2.070       .  S
C910       C1856   1.524       .  S
C910        O928   1.266       .  A
C911       C1499   1.481       .  S
C911        O924   1.271       .  A
Mn912       O928   2.194       .  S
O913       Mn916   1.979       .  S
Mn914       O932   1.935       .  S
C915       C1839   1.442       .  S
Mn916       O923   2.041       .  S
Mn916       O931   2.088       .  S
Mn916       O921   1.988       .  S
C917       C1739   1.472       .  S
C917        O923   1.256       .  A
C917        O933   1.271       .  A
O918       Mn930   1.974       .  S
O918        C920   1.222       .  S
C920       C1819   1.517       .  S
O922       Mn925   2.054       .  S
Mn925       O932   1.925       .  S
C927       C1756   1.515       .  S
O929        C934   1.267       .  A
Mn930       O933   2.104       .  S
O932        C934   1.209       .  S
C934       C1519   1.504       .  S
C935        C936   1.421       .  A
C935        C940   1.404       .  A
C935        F942   1.358       .  S
C936        C937   1.414       .  A
C937        C938   1.423       .  A
C937        F944   1.357       .  S
C938        C939   1.414       .  A
C938        F943   1.357       .  S
C939        C940   1.401       .  A
C940        F941   1.358       .  S
C945        C946   1.402       .  A
C945        C950   1.395       .  A
C945        F952   1.358       .  S
C946        C947   1.415       .  A
C947        C948   1.385       .  A
C947        F954   1.359       .  S
C948        C949   1.404       .  A
C948        F953   1.359       .  S
C949        C950   1.414       .  A
C950        F951   1.357       .  S
C955        C956   1.408       .  A
C955        C960   1.412       .  A
C955        F962   1.357       .  S
C956        C957   1.422       .  A
C957        C958   1.393       .  A
C957        F964   1.358       .  S
C958        C959   1.395       .  A
C958        F963   1.359       .  S
C959        C960   1.413       .  A
C960        F961   1.357       .  S
C965        C966   1.410       .  A
C965        C970   1.388       .  A
C965        F972   1.356       .  S
C966        C967   1.410       .  A
C967        C968   1.398       .  A
C967        F974   1.358       .  S
C968        C969   1.409       .  A
C968        F973   1.358       .  S
C969        C970   1.404       .  A
C970        F971   1.359       .  S
C975        C976   1.414       .  A
C975        C980   1.422       .  A
C975        F982   1.357       .  S
C976        C977   1.421       .  A
C977        C978   1.407       .  A
C977        F984   1.358       .  S
C978        C979   1.403       .  A
C978        F983   1.358       .  S
C979        C980   1.414       .  A
C980        F981   1.357       .  S
C985        C986   1.401       .  A
C985        C990   1.396       .  A
C985        F992   1.358       .  S
C986        C987   1.407       .  A
C987        C988   1.381       .  A
C987        F994   1.360       .  S
C988        C989   1.405       .  A
C988        F993   1.358       .  S
C989        C990   1.412       .  A
C990        F991   1.358       .  S
C995        C996   1.407       .  A
C995       C1000   1.383       .  A
C995       F1002   1.358       .  S
C996        C997   1.414       .  A
C997        C998   1.402       .  A
C997       F1004   1.358       .  S
C998        C999   1.407       .  A
C998       F1003   1.358       .  S
C999       C1000   1.411       .  A
C1000      F1001   1.358       .  S
C1005      C1006   1.418       .  A
C1005      C1010   1.413       .  A
C1005      F1012   1.356       .  S
C1006      C1007   1.394       .  A
C1007      C1008   1.389       .  A
C1007      F1014   1.360       .  S
C1008      C1009   1.426       .  A
C1008      F1013   1.358       .  S
C1009      C1010   1.400       .  A
C1010      F1011   1.357       .  S
C1015      C1016   1.418       .  A
C1015      C1020   1.419       .  A
C1015      F1022   1.357   1_565  S
C1016      C1017   1.409       .  A
C1017      C1018   1.406       .  A
C1017      F1024   1.358       .  S
C1018      C1019   1.415       .  A
C1018      F1023   1.357       .  S
C1019      C1020   1.410       .  A
C1020      F1021   1.357       .  S
C1025      C1026   1.403       .  A
C1025      C1030   1.387       .  A
C1025      F1032   1.358       .  S
C1026      C1027   1.408       .  A
C1027      C1028   1.400       .  A
C1027      F1034   1.358       .  S
C1028      C1029   1.402       .  A
C1028      F1033   1.357       .  S
C1029      C1030   1.403       .  A
C1030      F1031   1.359       .  S
C1035      C1036   1.412       .  A
C1035      C1040   1.420       .  A
C1035      F1042   1.357       .  S
C1036      C1037   1.415       .  A
C1037      C1038   1.405       .  A
C1037      F1044   1.357       .  S
C1038      C1039   1.409       .  A
C1038      F1043   1.358       .  S
C1039      C1040   1.417       .  A
C1040      F1041   1.357       .  S
C1045      C1046   1.399       .  A
C1045      C1050   1.395       .  A
C1045      F1052   1.358       .  S
C1046      C1047   1.403       .  A
C1047      C1048   1.384       .  A
C1047      F1054   1.359       .  S
C1048      C1049   1.396       .  A
C1048      F1053   1.359       .  S
C1049      C1050   1.404       .  A
C1050      F1051   1.358       .  S
C1055      C1056   1.408       .  A
C1055      C1060   1.406       .  A
C1055      F1062   1.358       .  S
C1056      C1057   1.412       .  A
C1057      C1058   1.385       .  A
C1057      F1064   1.354       .  S
C1058      C1059   1.402       .  A
C1058      F1063   1.359       .  S
C1059      C1060   1.414       .  A
C1060      F1061   1.358       .  S
C1065      C1066   1.417       .  A
C1065      C1070   1.411       .  A
C1065      F1072   1.357       .  S
C1066      C1067   1.399       .  A
C1067      C1068   1.392       .  A
C1067      F1074   1.358       .  S
C1068      C1069   1.420       .  A
C1068      F1073   1.357       .  S
C1069      C1070   1.405       .  A
C1070      F1071   1.357       .  S
C1075      C1076   1.403       .  A
C1075      C1080   1.386       .  A
C1075      F1082   1.359       .  S
C1076      C1077   1.401       .  A
C1077      C1078   1.398       .  A
C1077      F1084   1.357       .  S
C1078      C1079   1.408       .  A
C1078      F1083   1.358       .  S
C1079      C1080   1.403       .  A
C1080      F1081   1.358       .  S
C1085      C1086   1.417       .  A
C1085      C1090   1.408       .  A
C1085      F1092   1.358       .  S
C1086      C1087   1.410       .  A
C1087      C1088   1.418       .  A
C1087      F1094   1.357       .  S
C1088      C1089   1.418       .  A
C1088      F1093   1.357       .  S
C1089      C1090   1.408       .  A
C1090      F1091   1.358       .  S
C1095      C1096   1.406       .  A
C1095      C1100   1.398       .  A
C1095      F1102   1.358       .  S
C1096      C1097   1.404       .  A
C1097      C1098   1.382       .  A
C1097      F1104   1.358       .  S
C1098      C1099   1.399       .  A
C1098      F1103   1.359       .  S
C1099      C1100   1.403       .  A
C1100      F1101   1.358       .  S
C1105      C1106   1.418       .  A
C1105      C1110   1.401       .  A
C1105      F1112   1.358       .  S
C1106      C1107   1.415       .  A
C1107      C1108   1.421       .  A
C1107      F1114   1.357       .  S
C1108      C1109   1.414       .  A
C1108      F1113   1.357       .  S
C1109      C1110   1.403       .  A
C1110      F1111   1.358       .  S
C1115      C1116   1.405       .  A
C1115      C1120   1.384       .  A
C1115      F1122   1.358       .  S
C1116      C1117   1.412       .  A
C1117      C1118   1.398       .  A
C1117      F1124   1.358       .  S
C1118      C1119   1.403       .  A
C1118      F1123   1.358       .  S
C1119      C1120   1.409       .  A
C1120      F1121   1.359       .  S
C1125      C1126   1.413       .  A
C1125      C1130   1.424       .  A
C1125      F1132   1.357       .  S
C1126      C1127   1.420       .  A
C1127      C1128   1.408       .  A
C1127      F1134   1.358       .  S
C1128      C1129   1.404       .  A
C1128      F1133   1.358       .  S
C1129      C1130   1.418       .  A
C1130      F1131   1.357       .  S
C1135      C1136   1.413       .  A
C1135      C1140   1.414       .  A
C1135      F1142   1.357       .  S
C1136      C1137   1.396       .  A
C1137      C1138   1.396       .  A
C1137      F1144   1.359       .  S
C1138      C1139   1.423       .  A
C1138      F1143   1.359       .  S
C1139      C1140   1.409       .  A
C1140      F1141   1.357       .  S
C1145      C1146   1.409       .  A
C1145      C1150   1.396   1_545  A
C1145      F1152   1.358       .  S
C1146      C1147   1.408   1_545  A
C1147      C1148   1.390       .  A
C1147      F1154   1.359       .  S
C1148      C1149   1.410       .  A
C1148      F1153   1.358       .  S
C1149      C1150   1.409       .  A
C1150      F1151   1.358       .  S
C1155      C1156   1.403       .  A
C1155      C1160   1.406       .  A
C1155      F1162   1.358       .  S
C1156      C1157   1.413       .  A
C1157      C1158   1.421       .  A
C1157      F1164   1.357       .  S
C1158      C1159   1.413       .  A
C1158      F1163   1.357       .  S
C1159      C1160   1.418       .  A
C1160      F1161   1.358       .  S
C1165      C1166   1.411       .  A
C1165      C1170   1.395       .  A
C1165      F1172   1.358       .  S
C1166      C1167   1.405       .  A
C1167      C1168   1.382       .  A
C1167      F1174   1.359       .  S
C1168      C1169   1.411       .  A
C1168      F1173   1.358       .  S
C1169      C1170   1.404       .  A
C1170      F1171   1.358       .  S
C1175      C1176   1.412       .  A
C1175      C1180   1.393       .  A
C1175      F1182   1.359       .  S
C1176      C1177   1.410       .  A
C1177      C1178   1.406       .  A
C1177      F1184   1.357       .  S
C1178      C1179   1.405       .  A
C1178      F1183   1.357       .  S
C1179      C1180   1.399       .  A
C1180      F1181   1.359       .  S
C1185      C1186   1.409       .  A
C1185      C1190   1.404       .  A
C1185      F1192   1.358       .  S
C1186      C1187   1.413       .  A
C1187      C1188   1.387       .  A
C1187      F1194   1.357       .  S
C1188      C1189   1.404       .  A
C1188      F1193   1.359       .  S
C1189      C1190   1.413       .  A
C1190      F1191   1.358       .  S
C1195      C1196   1.417       .  A
C1195      C1200   1.391       .  A
C1195      F1202   1.359       .  S
C1196      C1197   1.408       .  A
C1197      C1198   1.406       .  A
C1197      F1204   1.357       .  S
C1198      C1199   1.408       .  A
C1198      F1203   1.357       .  S
C1199      C1200   1.397       .  A
C1200      F1201   1.359       .  S
C1205      C1206   1.413       .  A
C1205      C1210   1.390       .  A
C1205      F1212   1.358       .  S
C1206      C1207   1.410       .  A
C1207      C1208   1.402       .  A
C1207      F1214   1.358       .  S
C1208      C1209   1.410       .  A
C1208      F1213   1.358       .  S
C1209      C1210   1.406       .  A
C1210      F1211   1.358       .  S
C1215      C1216   1.409       .  A
C1215      C1220   1.391       .  A
C1215      F1222   1.359       .  S
C1216      C1217   1.409       .  A
C1217      C1218   1.405       .  A
C1217      F1224   1.357       .  S
C1218      C1219   1.404       .  A
C1218      F1223   1.357       .  S
C1219      C1220   1.400       .  A
C1220      F1221   1.359       .  S
C1225      C1226   1.411       .  A
C1225      C1230   1.398       .  A
C1225      F1232   1.357       .  S
C1226      C1227   1.407       .  A
C1227      C1228   1.390       .  A
C1227      F1234   1.359       .  S
C1228      C1229   1.413       .  A
C1228      F1233   1.359       .  S
C1229      C1230   1.408       .  A
C1230      F1231   1.358       .  S
C1235      C1236   1.404       .  A
C1235      C1240   1.405       .  A
C1235      F1242   1.357       .  S
C1236      C1237   1.397       .  A
C1237      C1238   1.387       .  A
C1237      F1244   1.359       .  S
C1238      C1239   1.411       .  A
C1238      F1243   1.359       .  S
C1239      C1240   1.409       .  A
C1240      F1241   1.357       .  S
C1245      C1246   1.406       .  A
C1245      C1250   1.406       .  A
C1245      F1252   1.358       .  S
C1246      C1247   1.409       .  A
C1247      C1248   1.386       .  A
C1247      F1254   1.359       .  S
C1248      C1249   1.409       .  A
C1248      F1253   1.358       .  S
C1249      C1250   1.415       .  A
C1250      F1251   1.358   1_455  S
C1255      C1256   1.407       .  A
C1255      C1260   1.407   1_565  A
C1255      F1262   1.358       .  S
C1256      C1257   1.411       .  A
C1257      C1258   1.386       .  A
C1257      F1264   1.359       .  S
C1258      C1259   1.409   1_565  A
C1258      F1263   1.358       .  S
C1259      C1260   1.415       .  A
C1260      F1261   1.357       .  S
C1265      C1266   1.412       .  A
C1265      C1270   1.408       .  A
C1265      F1272   1.358       .  S
C1266      C1267   1.397       .  A
C1267      C1268   1.390       .  A
C1267      F1274   1.359       .  S
C1268      C1269   1.417       .  A
C1268      F1273   1.358       .  S
C1269      C1270   1.406       .  A
C1270      F1271   1.357       .  S
C1275      C1276   1.410       .  A
C1275      C1280   1.404       .  A
C1275      F1282   1.358       .  S
C1276      C1277   1.398       .  A
C1277      C1278   1.388       .  A
C1277      F1284   1.359       .  S
C1278      C1279   1.415       .  A
C1278      F1283   1.358       .  S
C1279      C1280   1.405       .  A
C1280      F1281   1.357       .  S
C1285      C1286   1.400       .  A
C1285      C1290   1.390       .  A
C1285      F1292   1.359       .  S
C1286      C1287   1.408       .  A
C1287      C1288   1.403       .  A
C1287      F1294   1.358       .  S
C1288      C1289   1.410       .  A
C1288      F1293   1.358       .  S
C1289      C1290   1.413       .  A
C1290      F1291   1.356       .  S
C1295      C1296   1.400       .  A
C1295      C1300   1.381       .  A
C1295      F1302   1.359       .  S
C1296      C1297   1.401       .  A
C1297      C1298   1.397       .  A
C1297      F1304   1.358       .  S
C1298      C1299   1.407       .  A
C1298      F1303   1.358       .  S
C1299      C1300   1.402       .  A
C1300      F1301   1.358       .  S
C1305      C1306   1.411       .  A
C1305      C1310   1.420       .  A
C1305      F1312   1.357       .  S
C1306      C1307   1.415       .  A
C1307      C1308   1.410       .  A
C1307      F1314   1.356       .  S
C1308      C1309   1.411       .  A
C1308      F1313   1.357       .  S
C1309      C1310   1.419       .  A
C1310      F1311   1.357       .  S
C1315      C1316   1.400       .  A
C1315      C1320   1.379       .  A
C1315      F1322   1.360       .  S
C1316      C1317   1.397       .  A
C1317      C1318   1.390       .  A
C1317      F1324   1.358       .  S
C1318      C1319   1.406       .  A
C1318      F1323   1.357       .  S
C1319      C1320   1.405       .  A
C1320      F1321   1.359       .  S
C1325      C1326   1.412       .  A
C1325      C1330   1.417       .  A
C1325      F1332   1.357       .  S
C1326      C1327   1.414       .  A
C1327      C1328   1.404       .  A
C1327      F1334   1.358       .  S
C1328      C1329   1.408       .  A
C1328      F1333   1.358       .  S
C1329      C1330   1.415       .  A
C1330      F1331   1.357       .  S
C1335      C1336   1.408       .  A
C1335      C1340   1.384       .  A
C1335      F1342   1.359       .  S
C1336      C1337   1.414       .  A
C1337      C1338   1.403       .  A
C1337      F1344   1.357       .  S
C1338      C1339   1.406       .  A
C1338      F1343   1.358       .  S
C1339      C1340   1.412       .  A
C1340      F1341   1.358       .  S
C1345      C1346   1.425       .  A
C1345      C1350   1.389       .  A
C1345      F1352   1.358       .  S
C1346      C1347   1.402       .  A
C1347      C1348   1.415       .  A
C1347      F1354   1.357       .  S
C1348      C1349   1.418       .  A
C1348      F1353   1.356       .  S
C1349      C1350   1.395       .  A
C1350      F1351   1.359       .  S
C1355      C1356   1.405       .  A
C1355      C1360   1.397       .  A
C1355      F1362   1.358       .  S
C1356      C1357   1.409       .  A
C1357      C1358   1.378       .  A
C1357      F1364   1.359       .  S
C1358      C1359   1.407       .  A
C1358      F1363   1.359       .  S
C1359      C1360   1.411       .  A
C1360      F1361   1.358       .  S
C1365      C1366   1.407       .  A
C1365      C1370   1.421       .  A
C1365      F1372   1.357       .  S
C1366      C1367   1.425       .  A
C1367      C1368   1.400       .  A
C1367      F1374   1.359       .  S
C1368      C1369   1.399       .  A
C1368      F1373   1.359       .  S
C1369      C1370   1.416       .  A
C1370      F1371   1.355       .  S
C1375      C1376   1.408       .  A
C1375      C1380   1.397       .  A
C1375      F1382   1.358       .  S
C1376      C1377   1.403       .  A
C1377      C1378   1.379       .  A
C1377      F1384   1.358       .  S
C1378      C1379   1.403       .  A
C1378      F1383   1.359       .  S
C1379      C1380   1.402       .  A
C1380      F1381   1.358       .  S
C1385      C1386   1.416       .  A
C1385      C1390   1.420       .  A
C1385      F1392   1.357       .  S
C1386      C1387   1.406       .  A
C1387      C1388   1.408       .  A
C1387      F1394   1.358       .  S
C1388      C1389   1.419       .  A
C1388      F1393   1.358       .  S
C1389      C1390   1.412       .  A
C1390      F1391   1.357       .  S
C1395      C1396   1.394       .  A
C1395      C1400   1.391       .  A
C1395      F1402   1.360       .  S
C1396      C1397   1.415       .  A
C1397      C1398   1.414       .  A
C1397      F1404   1.356       .  S
C1398      C1399   1.402       .  A
C1398      F1403   1.357       .  S
C1399      C1400   1.426       .  A
C1400      F1401   1.359       .  S
C1405      C1406   1.410       .  A
C1405      C1410   1.399       .  A
C1405      F1412   1.359       .  S
C1406      C1407   1.409       .  A
C1407      C1408   1.387       .  A
C1407      F1414   1.356       .  S
C1408      C1409   1.403       .  A
C1408      F1413   1.358       .  S
C1409      C1410   1.410       .  A
C1410      F1411   1.358       .  S
C1415      C1416   1.414       .  A
C1415      C1420   1.389       .  A
C1415      F1422   1.358       .  S
C1416      C1417   1.409       .  A
C1417      C1418   1.405       .  A
C1417      F1424   1.358       .  S
C1418      C1419   1.413       .  A
C1418      F1423   1.357       .  S
C1419      C1420   1.406       .  A
C1420      F1421   1.359       .  S
C1425      C1426   1.408       .  A
C1425      C1430   1.406       .  A
C1425      F1432   1.357       .  S
C1426      C1427   1.416       .  A
C1427      C1428   1.386       .  A
C1427      F1434   1.359       .  S
C1428      C1429   1.395       .  A
C1428      F1433   1.359       .  S
C1429      C1430   1.407       .  A
C1430      F1431   1.357       .  S
C1435      C1436   1.406       .  A
C1435      C1440   1.406       .  A
C1435      F1442   1.358       .  S
C1436      C1437   1.403       .  A
C1437      C1438   1.388       .  A
C1437      F1444   1.359       .  S
C1438      C1439   1.410       .  A
C1438      F1443   1.358       .  S
C1439      C1440   1.412       .  A
C1440      F1441   1.357       .  S
C1445      C1446   1.414       .  A
C1445      C1450   1.388       .  A
C1445      F1452   1.358       .  S
C1446      C1447   1.407       .  A
C1447      C1448   1.404       .  A
C1447      F1454   1.357       .  S
C1448      C1449   1.408       .  A
C1448      F1453   1.358       .  S
C1449      C1450   1.398       .  A
C1450      F1451   1.359       .  S
C1455      C1456   1.413       .  A
C1455      C1460   1.404       .  A
C1455      F1462   1.357       .  S
C1456      C1457   1.409       .  A
C1457      C1458   1.386       .  A
C1457      F1464   1.359       .  S
C1458      C1459   1.411       .  A
C1458      F1463   1.359       .  S
C1459      C1460   1.408       .  A
C1460      F1461   1.358       .  S
C1465      C1466   1.414       .  A
C1465      C1470   1.392       .  A
C1465      F1472   1.359       .  S
C1466      C1467   1.409       .  A
C1467      C1468   1.406       .  A
C1467      F1474   1.357       .  S
C1468      C1469   1.406       .  A
C1468      F1473   1.357       .  S
C1469      C1470   1.398       .  A
C1470      F1471   1.359       .  S
C1475      C1476   1.407       .  A
C1475      C1480   1.387       .  A
C1475      F1482   1.359       .  S
C1476      C1477   1.408       .  A
C1477      C1478   1.406       .  A
C1477      F1484   1.358       .  S
C1478      C1479   1.414       .  A
C1478      F1483   1.357       .  S
C1479      C1480   1.412       .  A
C1480      F1481   1.358       .  S
C1485      C1486   1.407       .  A
C1485      C1490   1.403       .  A
C1485      F1492   1.357       .  S
C1486      C1487   1.415       .  A
C1487      C1488   1.389       .  A
C1487      F1494   1.358       .  S
C1488      C1489   1.398       .  A
C1488      F1493   1.359       .  S
C1489      C1490   1.407       .  A
C1490      F1491   1.357       .  S
C1495      C1496   1.406       .  A
C1495      C1500   1.390       .  A
C1495      F1502   1.359       .  S
C1496      C1497   1.407       .  A
C1497      C1498   1.396       .  A
C1497      F1504   1.358   1_455  S
C1498      C1499   1.411       .  A
C1498      F1503   1.358       .  S
C1499      C1500   1.409       .  A
C1500      F1501   1.357       .  S
C1505      C1506   1.417       .  A
C1505      C1510   1.393       .  A
C1505      F1512   1.359       .  S
C1506      C1507   1.407       .  A
C1507      C1508   1.406       .  A
C1507      F1514   1.357       .  S
C1508      C1509   1.410       .  A
C1508      F1513   1.358       .  S
C1509      C1510   1.399       .  A
C1510      F1511   1.358       .  S
C1515      C1516   1.414       .  A
C1515      C1520   1.415       .  A
C1515      F1522   1.357       .  S
C1516      C1517   1.395       .  A
C1517      C1518   1.395       .  A
C1517      F1524   1.358       .  S
C1518      C1519   1.423       .  A
C1518      F1523   1.359       .  S
C1519      C1520   1.408       .  A
C1520      F1521   1.357       .  S
C1525      C1526   1.405       .  A
C1525      C1530   1.390       .  A
C1525      F1532   1.358       .  S
C1526      C1527   1.412       .  A
C1527      C1528   1.402       .  A
C1527      F1534   1.358       .  S
C1528      C1529   1.409       .  A
C1528      F1533   1.358       .  S
C1529      C1530   1.413       .  A
C1530      F1531   1.358       .  S
C1535      C1536   1.411       .  A
C1535      C1540   1.418       .  A
C1535      F1542   1.357       .  S
C1536      C1537   1.404       .  A
C1537      C1538   1.404       .  A
C1537      F1544   1.358       .  S
C1538      C1539   1.414       .  A
C1538      F1543   1.358       .  S
C1539      C1540   1.411       .  A
C1540      F1541   1.357       .  S
C1545      C1546   1.413       .  A
C1545      C1550   1.383       .  A
C1545      F1552   1.359       .  S
C1546      C1547   1.403       .  A
C1547      C1548   1.396       .  A
C1547      F1554   1.358       .  S
C1548      C1549   1.413       .  A
C1548      F1553   1.358       .  S
C1549      C1550   1.403       .  A
C1550      F1551   1.359       .  S
C1555      C1556   1.394       .  A
C1555      C1560   1.395       .  A
C1555      F1562   1.359       .  S
C1556      C1557   1.414       .  A
C1557      C1558   1.414       .  A
C1557      F1564   1.357       .  S
C1558      C1559   1.407       .  A
C1558      F1563   1.357       .  S
C1559      C1560   1.425       .  A
C1560      F1561   1.359       .  S
C1565      C1566   1.410       .  A
C1565      C1570   1.398       .  A
C1565      F1572   1.358       .  S
C1566      C1567   1.410       .  A
C1567      C1568   1.389       .  A
C1567      F1574   1.359       .  S
C1568      C1569   1.410       .  A
C1568      F1573   1.359       .  S
C1569      C1570   1.409       .  A
C1570      F1571   1.358       .  S
C1575      C1576   1.411       .  A
C1575      C1580   1.409       .  A
C1575      F1582   1.358       .  S
C1576      C1577   1.419       .  A
C1577      C1578   1.421       .  A
C1577      F1584   1.357       .  S
C1578      C1579   1.411       .  A
C1578      F1583   1.357       .  S
C1579      C1580   1.415       .  A
C1580      F1581   1.357       .  S
C1585      C1586   1.401       .  A
C1585      C1590   1.386       .  A
C1585      F1592   1.359       .  S
C1586      C1587   1.405       .  A
C1587      C1588   1.395       .  A
C1587      F1594   1.358       .  S
C1588      C1589   1.400       .  A
C1588      F1593   1.358       .  S
C1589      C1590   1.401       .  A
C1590      F1591   1.359       .  S
C1595      C1596   1.427       .  A
C1595      C1600   1.390       .  A
C1595      F1602   1.358       .  S
C1596      C1597   1.399       .  A
C1597      C1598   1.412       .  A
C1597      F1604   1.357       .  S
C1598      C1599   1.418       .  A
C1598      F1603   1.356       .  S
C1599      C1600   1.394       .  A
C1600      F1601   1.360       .  S
C1605      C1606   1.408       .  A
C1605      C1610   1.403       .  A
C1605      F1612   1.358       .  S
C1606      C1607   1.411       .  A
C1607      C1608   1.386       .  A
C1607      F1614   1.357       .  S
C1608      C1609   1.407       .  A
C1608      F1613   1.358       .  S
C1609      C1610   1.414       .  A
C1610      F1611   1.358       .  S
C1615      C1616   1.414       .  A
C1615      C1620   1.424       .  A
C1615      F1622   1.357       .  S
C1616      C1617   1.422       .  A
C1617      C1618   1.407       .  A
C1617      F1624   1.358       .  S
C1618      C1619   1.402       .  A
C1618      F1623   1.358       .  S
C1619      C1620   1.416       .  A
C1620      F1621   1.357       .  S
C1625      C1626   1.413       .  A
C1625      C1630   1.418       .  A
C1625      F1632   1.357   1_565  S
C1626      C1627   1.406       .  A
C1627      C1628   1.403       .  A
C1627      F1634   1.358       .  S
C1628      C1629   1.417       .  A
C1628      F1633   1.358       .  S
C1629      C1630   1.413       .  A
C1630      F1631   1.357       .  S
C1635      C1636   1.401       .  A
C1635      C1640   1.396       .  A
C1635      F1642   1.358       .  S
C1636      C1637   1.412       .  A
C1637      C1638   1.382       .  A
C1637      F1644   1.360       .  S
C1638      C1639   1.403       .  A
C1638      F1643   1.358       .  S
C1639      C1640   1.416       .  A
C1640      F1641   1.358       .  S
C1645      C1646   1.404       .  A
C1645      C1650   1.381       .  A
C1645      F1652   1.359       .  S
C1646      C1647   1.403       .  A
C1647      C1648   1.395       .  A
C1647      F1654   1.358       .  S
C1648      C1649   1.403       .  A
C1648      F1653   1.358       .  S
C1649      C1650   1.398       .  A
C1650      F1651   1.359       .  S
C1655      C1656   1.407       .  A
C1655      C1660   1.414       .  A
C1655      F1662   1.356       .  S
C1656      C1657   1.425       .  A
C1657      C1658   1.396       .  A
C1657      F1664   1.359       .  S
C1658      C1659   1.396       .  A
C1658      F1663   1.359       .  S
C1659      C1660   1.413       .  A
C1660      F1661   1.357       .  S
C1665      C1666   1.410       .  A
C1665      C1670   1.401       .  A
C1665      F1672   1.358       .  S
C1666      C1667   1.410       .  A
C1667      C1668   1.388       .  A
C1667      F1674   1.357       .  S
C1668      C1669   1.408       .  A
C1668      F1673   1.359       .  S
C1669      C1670   1.411       .  A
C1670      F1671   1.358       .  S
C1675      C1676   1.416       .  A
C1675      C1680   1.424       .  A
C1675      F1682   1.357       .  S
C1676      C1677   1.402       .  A
C1677      C1678   1.408       .  A
C1677      F1684   1.358       .  S
C1678      C1679   1.423       .  A
C1678      F1683   1.358       .  S
C1679      C1680   1.415       .  A
C1680      F1681   1.357       .  S
C1685      C1686   1.400       .  A
C1685      C1690   1.393       .  A
C1685      F1692   1.358       .  S
C1686      C1687   1.406       .  A
C1687      C1688   1.379       .  A
C1687      F1694   1.360       .  S
C1688      C1689   1.405       .  A
C1688      F1693   1.358       .  S
C1689      C1690   1.410       .  A
C1690      F1691   1.358       .  S
C1695      C1696   1.425       .  A
C1695      C1700   1.390       .  A
C1695      F1702   1.358       .  S
C1696      C1697   1.400       .  A
C1697      C1698   1.412       .  A
C1697      F1704   1.357       .  S
C1698      C1699   1.418       .  A
C1698      F1703   1.356       .  S
C1699      C1700   1.396       .  A
C1700      F1701   1.360       .  S
C1705      C1706   1.405       .  A
C1705      C1710   1.403       .  A
C1705      F1712   1.358       .  S
C1706      C1707   1.406       .  A
C1707      C1708   1.383       .  A
C1707      F1714   1.360       .  S
C1708      C1709   1.408       .  A
C1708      F1713   1.358       .  S
C1709      C1710   1.412       .  A
C1710      F1711   1.357       .  S
C1715      C1716   1.411       .  A
C1715      C1720   1.402       .  A
C1715      F1722   1.358       .  S
C1716      C1717   1.416       .  A
C1717      C1718   1.417       .  A
C1717      F1724   1.357       .  S
C1718      C1719   1.411       .  A
C1718      F1723   1.356       .  S
C1719      C1720   1.412       .  A
C1720      F1721   1.357       .  S
C1725      C1726   1.399       .  A
C1725      C1730   1.385       .  A
C1725      F1732   1.359       .  S
C1726      C1727   1.400       .  A
C1727      C1728   1.393       .  A
C1727      F1734   1.357       .  S
C1728      C1729   1.403       .  A
C1728      F1733   1.357       .  S
C1729      C1730   1.404       .  A
C1730      F1731   1.358       .  S
C1735      C1736   1.403       .  A
C1735      C1740   1.383       .  A
C1735      F1742   1.359       .  S
C1736      C1737   1.412       .  A
C1737      C1738   1.396       .  A
C1737      F1744   1.358       .  S
C1738      C1739   1.402       .  A
C1738      F1743   1.358       .  S
C1739      C1740   1.415       .  A
C1740      F1741   1.359       .  S
C1745      C1746   1.402       .  A
C1745      C1750   1.387       .  A
C1745      F1752   1.358       .  S
C1746      C1747   1.407       .  A
C1747      C1748   1.397       .  A
C1747      F1754   1.358       .  S
C1748      C1749   1.401       .  A
C1748      F1753   1.357       .  S
C1749      C1750   1.403       .  A
C1750      F1751   1.359       .  S
C1755      C1756   1.419       .  A
C1755      C1760   1.404       .  A
C1755      F1762   1.358       .  S
C1756      C1757   1.413       .  A
C1757      C1758   1.420       .  A
C1757      F1764   1.356       .  S
C1758      C1759   1.413       .  A
C1758      F1763   1.357       .  S
C1759      C1760   1.401       .  A
C1760      F1761   1.358       .  S
C1765      C1766   1.416       .  A
C1765      C1770   1.410       .  A
C1765      F1772   1.356       .  S
C1766      C1767   1.409       .  A
C1767      C1768   1.419       .  A
C1767      F1774   1.357       .  S
C1768      C1769   1.420       .  A
C1768      F1773   1.357       .  S
C1769      C1770   1.410       .  A
C1770      F1771   1.357       .  S
C1775      C1776   1.409       .  A
C1775      C1780   1.406       .  A
C1775      F1782   1.357       .  S
C1776      C1777   1.416       .  A
C1777      C1778   1.388       .  A
C1777      F1784   1.358       .  S
C1778      C1779   1.395       .  A
C1778      F1783   1.359       .  S
C1779      C1780   1.406       .  A
C1780      F1781   1.357       .  S
C1785      C1786   1.410       .  A
C1785      C1790   1.386       .  A
C1785      F1792   1.354       .  S
C1786      C1787   1.408       .  A
C1787      C1788   1.402       .  A
C1787      F1794   1.358       .  S
C1788      C1789   1.414       .  A
C1788      F1793   1.358       .  S
C1789      C1790   1.404       .  A
C1790      F1791   1.359       .  S
C1795      C1796   1.413       .  A
C1795      C1800   1.405       .  A
C1795      F1802   1.358       .  S
C1796      C1797   1.408       .  A
C1797      C1798   1.387       .  A
C1797      F1804   1.359       .  S
C1798      C1799   1.412       .  A
C1798      F1803   1.358       .  S
C1799      C1800   1.409       .  A
C1800      F1801   1.358       .  S
C1805      C1806   1.394       .  A
C1805      C1810   1.390       .  A
C1805      F1812   1.360       .  S
C1806      C1807   1.416       .  A
C1807      C1808   1.411       .  A
C1807      F1814   1.356       .  S
C1808      C1809   1.400       .  A
C1808      F1813   1.357       .  S
C1809      C1810   1.427       .  A
C1810      F1811   1.359       .  S
C1815      C1816   1.404       .  A
C1815      C1820   1.402       .  A
C1815      F1822   1.358       .  S
C1816      C1817   1.413       .  A
C1817      C1818   1.420       .  A
C1817      F1824   1.357       .  S
C1818      C1819   1.414       .  A
C1818      F1823   1.357       .  S
C1819      C1820   1.419       .  A
C1820      F1821   1.358       .  S
C1825      C1826   1.421       .  A
C1825      C1830   1.409       .  A
C1825      F1832   1.358       .  S
C1826      C1827   1.412       .  A
C1827      C1828   1.423       .  A
C1827      F1834   1.357       .  S
C1828      C1829   1.417       .  A
C1828      F1833   1.357       .  S
C1829      C1830   1.405       .  A
C1830      F1831   1.358       .  S
C1835      C1836   1.401       .  A
C1835      C1840   1.395       .  A
C1835      F1842   1.358       .  S
C1836      C1837   1.402       .  A
C1837      C1838   1.386       .  A
C1837      F1844   1.359       .  S
C1838      C1839   1.397       .  A
C1838      F1843   1.358       .  S
C1839      C1840   1.404       .  A
C1840      F1841   1.358       .  S
C1845      C1846   1.415       .  A
C1845      C1850   1.394       .  A
C1845      F1852   1.358       .  S
C1846      C1847   1.404       .  A
C1847      C1848   1.381       .  A
C1847      F1854   1.358       .  S
C1848      C1849   1.410       .  A
C1848      F1853   1.359       .  S
C1849      C1850   1.401       .  A
C1850      F1851   1.359       .  S
C1855      C1856   1.419       .  A
C1855      C1860   1.411       .  A
C1855      F1862   1.357       .  S
C1856      C1857   1.411       .  A
C1857      C1858   1.424       .  A
C1857      F1864   1.357       .  S
C1858      C1859   1.422       .  A
C1858      F1863   1.357       .  S
C1859      C1860   1.409       .  A
C1860      F1861   1.357       .  S
C1865      C1866   1.419       .  A
C1865      C1870   1.422       .  A
C1865      F1872   1.355       .  S
C1866      C1867   1.401       .  A
C1867      C1868   1.401       .  A
C1867      F1874   1.359       .  S
C1868      C1869   1.427       .  A
C1868      F1873   1.359       .  S
C1869      C1870   1.406       .  A
C1870      F1871   1.357       .  S
C1875      C1876   1.403       .  A
C1875      C1880   1.387       .  A
C1875      F1882   1.359       .  S
C1876      C1877   1.400       .  A
C1877      C1878   1.395       .  A
C1877      F1884   1.358       .  S
C1878      C1879   1.407       .  A
C1878      F1883   1.358       .  S
C1879      C1880   1.403       .  A
C1880      F1881   1.358       .  S
C1885      C1886   1.413       .  A
C1885      C1890   1.394       .  A
C1885      F1892   1.358       .  S
C1886      C1887   1.400       .  A
C1887      C1888   1.382       .  A
C1887      F1894   1.359       .  S
C1888      C1889   1.413       .  A
C1888      F1893   1.357       .  S
C1889      C1890   1.404       .  A
C1890      F1891   1.358       .  S
