geometry optimzed in LAMMPS
_audit_creation_date              2020-12-01 
_audit_creation_method            'lammps2cif' 
_symmetry_space_group_name_H-M    'P1' 
_symmetry_Int_Tables_number       1 
_symmetry_cell_setting            triclinic 
loop_ 
_symmetry_equiv_pos_as_xyz 
  x,y,z 
_cell_length_a                    29.77913776 
_cell_length_b                    29.745476910149453 
_cell_length_c                    30.998483202603378 
_cell_angle_alpha                 89.76780108559248 
_cell_angle_beta                  90.14912592275905 
_cell_angle_gamma                 89.95287738417441 
loop_ 
_atom_site_label 
_atom_site_type_symbol 
_atom_site_fract_x 
_atom_site_fract_y 
_atom_site_fract_z 
_atom_site_charge 
C1          C  0.23092850  0.21370952  0.23088778     0.32100
C2          C  0.28547398  0.26873380  0.27647286     0.32100
C3          C  0.27614289  0.22545796  0.20913300    -0.04100
C4          C  0.21131891  0.26039455  0.24141050    -0.04900
C5          C  0.24519436  0.19609474  0.27593124    -0.04800
C6          C  0.30375354  0.25361827  0.23297046    -0.04200
C7          C  0.23956128  0.28838179  0.26484802    -0.04900
C8          C  0.27338780  0.22459435  0.29885987    -0.04800
C9          C  0.34145990  0.26227313  0.20900976    -0.30200
N10         N  0.33805511  0.24039011  0.17083940     0.16300
C11         C  0.29816760  0.21763105  0.17042337    -0.30200
H12         H  0.28579476  0.19730264  0.14411571     0.18200
C13         C  0.21678523  0.32768102  0.27247980    -0.29200
N14         N  0.17533838  0.32474779  0.25435278     0.15000
C15         C  0.17154637  0.28366950  0.23518356    -0.29200
C16         C  0.27949057  0.20661343  0.33934746    -0.29500
N17         N  0.25565168  0.16789371  0.34233509     0.15500
H18         H  0.29865128  0.22146034  0.36537270     0.18200
C19         C  0.23445612  0.16105397  0.30367947    -0.29500
H20         H  0.21200419  0.13356491  0.29637852     0.18200
H21         H  0.14225547  0.27131753  0.21831898     0.18200
H22         H  0.36927679  0.28352903  0.21843918     0.18200
H23         H  0.22935788  0.35638719  0.29014343     0.18200
N24         N  0.93126666  0.49745295  0.24218219    -0.34600
N25         N  0.00752334  0.55814717  0.24159400    -0.55100
N26         N  0.06768956  0.48139137  0.24327259    -0.34600
N27         N  0.99151937  0.42041311  0.23766308    -0.55100
C28         C  0.91132724  0.53677257  0.23094106     0.29000
C29         C  0.90267405  0.46395498  0.23157171     0.29000
C30         C  0.09617846  0.51564601  0.23444182     0.29000
C31         C  0.08765237  0.44299912  0.22995674     0.29000
C32         C  0.97392380  0.58691466  0.25126637     0.37600
C33         C  0.04594485  0.57803973  0.25476294     0.37600
C34         C  0.95265927  0.39933395  0.24781752     0.37600
C35         C  0.02504851  0.39076384  0.24574871     0.37600
C36         C  0.86988454  0.52803370  0.21229155    -0.19800
C37         C  0.86422143  0.48207303  0.21312188    -0.19800
C38         C  0.13446229  0.49903824  0.21486534    -0.19800
C39         C  0.12888557  0.45321516  0.21158015    -0.19800
C40         C  0.99090726  0.62509820  0.27079677    -0.20900
C41         C  0.03653328  0.61920214  0.27359182    -0.20900
C42         C  0.96168262  0.35624264  0.26280385    -0.20900
C43         C  0.00748620  0.35066496  0.26102305    -0.20900
C44         C  0.92847501  0.58005587  0.24043375    -0.16200
C45         C  0.90929768  0.41786237  0.24092777    -0.16200
C46         C  0.07104320  0.39900371  0.23764546    -0.16200
C47         C  0.08934261  0.56094891  0.24621359    -0.16200
H48         H  0.84581302  0.55219655  0.20002480     0.16700
H49         H  0.83502966  0.46404104  0.20160643     0.16700
H50         H  0.16346352  0.51794016  0.20423362     0.16700
H51         H  0.15290232  0.43003664  0.19786740     0.16700
H52         H  0.97233071  0.65402714  0.28208171     0.14900
H53         H  0.06001540  0.64285957  0.28744483     0.14900
H54         H  0.93790951  0.33123942  0.27377004     0.14900
H55         H  0.02575596  0.32065734  0.27027354     0.14900
H56         H  0.96012834  0.49385761  0.26079931     0.28200
H57         H  0.03895546  0.48352461  0.26215021     0.28200
C58         C  0.78350909  0.77538896  0.22974595     0.32100
C59         C  0.73094743  0.73144724  0.28686503     0.32100
C60         C  0.73594909  0.76446759  0.21371801    -0.04100
C61         C  0.80125435  0.72944555  0.24498312    -0.04900
C62         C  0.77450934  0.80034163  0.27210710    -0.04800
C63         C  0.70913712  0.74174788  0.24316232    -0.04200
C64         C  0.77405830  0.70704001  0.27423815    -0.04900
C65         C  0.74780771  0.77753881  0.30174745    -0.04800
C66         C  0.66816321  0.73456101  0.22388785    -0.30200
N67         N  0.66900011  0.75285246  0.18372038     0.16300
C68         C  0.71043346  0.77111867  0.17703540    -0.30200
H69         H  0.72151060  0.78754670  0.14775738     0.21000
C70         C  0.79295588  0.66562512  0.28200169    -0.29200
N71         N  0.83112081  0.66211928  0.25841395     0.15000
C72         C  0.83651643  0.70101519  0.23550135    -0.29200
C73         C  0.74151387  0.80571607  0.33639286    -0.29500
N74         N  0.76310098  0.84507660  0.32807549     0.15500
H75         H  0.72118682  0.79899806  0.36458625     0.18200
C76         C  0.78286660  0.84241285  0.28874714    -0.29500
H77         H  0.80116303  0.86936868  0.27317646     0.18200
H78         H  0.86300284  0.70778961  0.21259714     0.18200
H79         H  0.63960377  0.71765949  0.23813799     0.18200
H80         H  0.77941846  0.63945892  0.30255755     0.18200
N81         N  0.23122303  0.99157275  0.43944721    -0.34600
N82         N  0.23219595  0.06475327  0.50255093    -0.55100
N83         N  0.23136091  0.99660172  0.57021160    -0.34600
N84         N  0.23822734  0.92343670  0.50690161    -0.55100
C85         C  0.24044378  0.02746526  0.41388912     0.29000
C86         C  0.24064751  0.95419981  0.41626624     0.29000
C87         C  0.23680479  0.03457410  0.59381917     0.29000
C88         C  0.24231801  0.96130528  0.59603806     0.29000
C89         C  0.22447260  0.08899252  0.46617284     0.37600
C90         C  0.22209411  0.09165807  0.53637791     0.37600
C91         C  0.22912787  0.89618081  0.47301492     0.37600
C92         C  0.23191700  0.89875113  0.54319773     0.37600
C93         C  0.25645177  0.01260050  0.37442611    -0.19800
C94         C  0.25639218  0.96648820  0.37587360    -0.19800
C95         C  0.25164507  0.02321472  0.63486254    -0.19800
C96         C  0.25528740  0.97720634  0.63621592    -0.19800
C97         C  0.20993187  0.13177064  0.47696010    -0.20900
C98         C  0.20832905  0.13342541  0.52136643    -0.20900
C99         C  0.21759666  0.85375134  0.48781756    -0.20900
C100        C  0.21950929  0.85532135  0.53222562    -0.20900
C101        C  0.23142640  0.07311368  0.42352324    -0.16200
C102        C  0.23217502  0.90929132  0.42904483    -0.16200
C103        C  0.23738354  0.91501324  0.58597768    -0.16200
C104        C  0.22636027  0.07908975  0.58050082    -0.16200
H105        H  0.26639354  0.03289308  0.34701050     0.16700
H106        H  0.26633637  0.94443110  0.34989208     0.16700
H107        H  0.25884454  0.04576040  0.66131235     0.16700
H108        H  0.26562893  0.95761933  0.66402470     0.16700
H109        H  0.20093241  0.15885442  0.45518597     0.14900
H110        H  0.19792827  0.16205698  0.54030438     0.14900
H111        H  0.20839504  0.82478342  0.46875126     0.14900
H112        H  0.21176161  0.82780244  0.55387937     0.14900
H113        H  0.21390845  0.99236797  0.46846588     0.28200
H114        H  0.21574167  0.99455030  0.54034183     0.28200
N115        N  0.76832613  0.00418368  0.43278976    -0.34600
N116        N  0.76713972  0.07847670  0.49391686    -0.55100
N117        N  0.76317330  0.01509094  0.56431395    -0.34600
N118        N  0.76551227  0.94102760  0.50330310    -0.55100
C119        C  0.78256602  0.03907691  0.40827221     0.29000
C120        C  0.78179734  0.96587249  0.41311249     0.29000
C121        C  0.77626175  0.05306954  0.58476491     0.29000
C122        C  0.77563198  0.97992807  0.58949478     0.29000
C123        C  0.76107561  0.10169877  0.45671500     0.37600
C124        C  0.75913023  0.10744434  0.52661007     0.37600
C125        C  0.75914348  0.91229938  0.47014115     0.37600
C126        C  0.75584521  0.91805294  0.53985286     0.37600
C127        C  0.80571474  0.02280026  0.37282356    -0.19800
C128        C  0.80585615  0.97668012  0.37626623    -0.19800
C129        C  0.79836537  0.04173066  0.62273149    -0.19800
C130        C  0.79729246  0.99565376  0.62607906    -0.19800
C131        C  0.74946967  0.14582361  0.46596895    -0.20900
C132        C  0.74770314  0.14927933  0.51010139    -0.20900
C133        C  0.74486414  0.87096371  0.48567421    -0.20900
C134        C  0.74333271  0.87440863  0.52976162    -0.20900
C135        C  0.77138859  0.08468731  0.41518742    -0.16200
C136        C  0.77061850  0.92170754  0.42677677    -0.16200
C137        C  0.76428743  0.93455845  0.58186939    -0.16200
C138        C  0.76639941  0.09747955  0.57080474    -0.16200
H139        H  0.82093652  0.04194935  0.34699137     0.16700
H140        H  0.82178726  0.95385456  0.35393494     0.16700
H141        H  0.81359390  0.06421673  0.64587521     0.16700
H142        H  0.81090757  0.97614299  0.65257864     0.16700
H143        H  0.74443315  0.17342798  0.44370814     0.14900
H144        H  0.74017447  0.17963510  0.52777567     0.14900
H145        H  0.73756441  0.84087835  0.46747050     0.14900
H146        H  0.73556446  0.84705550  0.55152057     0.14900
H147        H  0.74597676  0.00637326  0.45850692     0.28200
H148        H  0.74217093  0.01340660  0.53740997     0.28200
C149        C  0.29185405  0.71834275  0.73328831     0.32100
C150        C  0.23902940  0.77504584  0.77858828     0.32100
C151        C  0.27879075  0.76173369  0.70977389    -0.04100
C152        C  0.24663193  0.69914735  0.74724275    -0.04900
C153        C  0.31198876  0.73508690  0.77571506    -0.04800
C154        C  0.25160462  0.79101723  0.73270290    -0.04200
C155        C  0.21922001  0.72789290  0.77053051    -0.04900
C156        C  0.28508392  0.76422513  0.79928331    -0.04800
C157        C  0.24206000  0.82670814  0.70532681    -0.30200
N158        N  0.26282839  0.81952103  0.66665328     0.16300
C159        C  0.28544200  0.77994460  0.66939209    -0.30200
H160        H  0.30475073  0.76510621  0.64354496     0.18200
C161        C  0.18013723  0.70437283  0.77928271    -0.29200
N162        N  0.18366648  0.66239054  0.76179470     0.15000
C163        C  0.22420071  0.65921129  0.74219277    -0.29200
C164        C  0.30817700  0.77362085  0.83706241    -0.29500
N165        N  0.34808716  0.75089619  0.83663060     0.15500
H166        H  0.29646907  0.79505287  0.86278451     0.18200
C167        C  0.35046729  0.72742027  0.79920255    -0.29500
H168        H  0.37808118  0.70582818  0.78998623     0.18200
H169        H  0.23624942  0.63001021  0.72497836     0.18200
H170        H  0.22138673  0.85539873  0.71320087     0.18200
H171        H  0.15129312  0.71735030  0.79631072     0.18200
N172        N  0.05990359  0.51281471  0.76635551    -0.34600
N173        N  0.99369995  0.58558441  0.76836215    -0.55100
N174        N  0.92137805  0.52141243  0.75628626    -0.34600
N175        N  0.98673302  0.44810735  0.76083529    -0.55100
C176        C  0.08546465  0.54742770  0.78060585     0.29000
C177        C  0.08175539  0.47403607  0.77622789     0.29000
C178        C  0.89801267  0.55859086  0.76773257     0.29000
C179        C  0.89447147  0.48547458  0.76335786     0.29000
C180        C  0.03191060  0.60994199  0.76510998     0.37600
C181        C  0.95943520  0.61427444  0.75984542     0.37600
C182        C  0.02224836  0.42098574  0.75290489     0.37600
C183        C  0.94986912  0.42561777  0.74720561     0.37600
C184        C  0.12409921  0.53039129  0.79974997    -0.19800
C185        C  0.12175631  0.48414663  0.79698336    -0.19800
C186        C  0.85586324  0.54602271  0.78243060    -0.19800
C187        C  0.85353603  0.49992673  0.77940548    -0.19800
C188        C  0.02180073  0.65409242  0.75418843    -0.20900
C189        C  0.97596163  0.65681939  0.75087006    -0.20900
C190        C  0.00792773  0.38137883  0.73395757    -0.20900
C191        C  0.96216507  0.38450667  0.72992069    -0.20900
C192        C  0.07550099  0.59388891  0.77505647    -0.16200
C193        C  0.06702944  0.43008519  0.76525329    -0.16200
C194        C  0.90515390  0.44031334  0.75354578    -0.16200
C195        C  0.91337966  0.60352490  0.76361355    -0.16200
H196        H  0.15118264  0.54925481  0.81434405     0.16700
H197        H  0.14668393  0.46071345  0.80897902     0.16700
H198        H  0.82945969  0.56769174  0.79425286     0.16700
H199        H  0.82497888  0.47938720  0.78820161     0.16700
H200        H  0.04497100  0.68169293  0.74954232     0.14900
H201        H  0.95698553  0.68687987  0.74324274     0.14900
H202        H  0.02834365  0.35313624  0.72406520     0.14900
H203        H  0.94048509  0.35910596  0.71620631     0.14900
H204        H  0.03135432  0.51567969  0.74712211     0.28200
H205        H  0.95209822  0.52089363  0.74034093     0.28200
C206        C  0.77188266  0.22490259  0.77996251     0.32100
C207        C  0.72721264  0.27899599  0.72428721     0.32100
C208        C  0.72403191  0.23769310  0.79357185    -0.04100
C209        C  0.79378765  0.27076313  0.77108003    -0.04900
C210        C  0.76484070  0.20577293  0.73450178    -0.04800
C211        C  0.70124930  0.26547503  0.76487987    -0.04200
C212        C  0.77071285  0.29850863  0.74255540    -0.04900
C213        C  0.74220061  0.23373563  0.70565535    -0.04800
C214        C  0.65981194  0.27454325  0.78234036    -0.30200
N215        N  0.65654824  0.25284185  0.82081313     0.16300
C216        C  0.69579152  0.23021947  0.82805240    -0.30200
H217        H  0.70390983  0.21062281  0.85646269     0.18200
C218        C  0.79484168  0.33772620  0.73842574    -0.29200
N219        N  0.83213042  0.33452986  0.76380874     0.15000
C220        C  0.83171105  0.29371472  0.78378305    -0.29200
C221        C  0.73696669  0.21021505  0.66767826    -0.29500
N222        N  0.75525504  0.16866302  0.67318820     0.15500
H223        H  0.71922040  0.22148070  0.63909357     0.18200
C224        C  0.77188080  0.16544455  0.71393169    -0.29500
H225        H  0.78685068  0.13553386  0.72785138     0.18200
H226        H  0.85731983  0.28156533  0.80577413     0.18200
H227        H  0.63402605  0.29576978  0.76833033     0.18200
H228        H  0.78589878  0.36594293  0.71805899     0.18200
N229        N  0.50861275  0.76560722  0.07978291    -0.34600
N230        N  0.43539973  0.76753951  0.01688165    -0.55100
N231        N  0.50129823  0.77513013  0.94717884    -0.34600
N232        N  0.57334755  0.78098892  0.01087040    -0.55100
C233        C  0.47257883  0.76987720  0.10605563     0.29000
C234        C  0.54543015  0.77755035  0.10286291     0.29000
C235        C  0.46252776  0.78341465  0.92549327     0.29000
C236        C  0.53554915  0.79067533  0.92249044     0.29000
C237        C  0.41233556  0.75408465  0.05231409     0.37600
C238        C  0.40839958  0.75975097  0.98245246     0.37600
C239        C  0.60201783  0.77362191  0.04407384     0.37600
C240        C  0.59828316  0.77889430  0.97452244     0.37600
C241        C  0.48669569  0.78465418  0.14624838    -0.19800
C242        C  0.53254628  0.78975396  0.14415569    -0.19800
C243        C  0.47238019  0.80450700  0.88664929    -0.19800
C244        C  0.51832435  0.80897536  0.88473200    -0.19800
C245        C  0.37067879  0.73751941  0.04018815    -0.20900
C246        C  0.36804724  0.74148251  0.99610068    -0.20900
C247        C  0.64518698  0.76686700  0.02873261    -0.20900
C248        C  0.64282621  0.77021132  0.98471664    -0.20900
C249        C  0.42762762  0.75864292  0.09552821    -0.16200
C250        C  0.59048861  0.77575399  0.08817401    -0.16200
C251        C  0.58202996  0.78722695  0.93241274    -0.16200
C252        C  0.41869898  0.77080687  0.93905910    -0.16200
H253        H  0.46607683  0.79123957  0.17422777     0.16700
H254        H  0.55389440  0.80111924  0.17021394     0.16700
H255        H  0.44894524  0.81587273  0.86220118     0.16700
H256        H  0.53687115  0.82430776  0.85856082     0.16700
H257        H  0.34475425  0.72385344  0.06078572     0.14900
H258        H  0.33972582  0.73165240  0.97633683     0.14900
H259        H  0.67536747  0.76040489  0.04728437     0.14900
H260        H  0.67083478  0.76677350  0.96279280     0.14900
H261        H  0.50862135  0.75070978  0.04950998     0.28200
H262        H  0.50447534  0.75586730  0.97508215     0.28200
N263        N  0.49330900  0.24351080  0.92465335    -0.34600
N264        N  0.55970789  0.23303811  0.99277153    -0.55100
N265        N  0.48902389  0.23141157  0.05747265    -0.34600
N266        N  0.42141840  0.23474990  0.98840242    -0.55100
C267        C  0.53021690  0.23338241  0.90099769     0.29000
C268        C  0.45703287  0.23766284  0.89887816     0.29000
C269        C  0.52501354  0.21819604  0.08131736     0.29000
C270        C  0.45158553  0.21845268  0.07898582     0.29000
C271        C  0.58736696  0.24110870  0.95912105     0.37600
C272        C  0.58522688  0.23654540  0.02870931     0.37600
C273        C  0.39692373  0.24811541  0.95367080     0.37600
C274        C  0.39463972  0.23962060  0.02338311     0.37600
C275        C  0.51709725  0.22100696  0.85976478    -0.19800
C276        C  0.47103174  0.22411390  0.85831379    -0.19800
C277        C  0.51031328  0.19682281  0.11845635    -0.19800
C278        C  0.46409864  0.19670826  0.11687799    -0.19800
C279        C  0.63042981  0.25019166  0.97376635    -0.20900
C280        C  0.62905585  0.24742429  0.01784062    -0.20900
C281        C  0.35454940  0.26161731  0.96675766    -0.20900
C282        C  0.35299059  0.25591125  0.01075732    -0.20900
C283        C  0.57541493  0.23639308  0.91530868    -0.16200
C284        C  0.41179755  0.24631208  0.91019646    -0.16200
C285        C  0.40654214  0.22779739  0.06631194    -0.16200
C286        C  0.57075167  0.22561831  0.07076103    -0.16200
H287        H  0.53836792  0.21075249  0.83332819     0.16700
H288        H  0.45015449  0.21679915  0.83058309     0.16700
H289        H  0.53074129  0.18229943  0.14386051     0.16700
H290        H  0.44227133  0.18201930  0.14094832     0.16700
H291        H  0.65996830  0.25734297  0.95465774     0.14900
H292        H  0.65738851  0.25189364  0.03934033     0.14900
H293        H  0.32746065  0.27431738  0.94683189     0.14900
H294        H  0.32450218  0.26332284  0.03114325     0.14900
H295        H  0.49295423  0.25794736  0.95513772     0.28200
H296        H  0.48987148  0.25193890  0.03023830     0.28200
C297        C  0.70331743  0.74083694  0.72430949     0.32100
C298        C  0.75957957  0.79256766  0.77157610     0.32100
C299        C  0.68534875  0.75535358  0.76810971    -0.04100
C300        C  0.74851120  0.71941062  0.73551043    -0.04900
C301        C  0.71660667  0.78544202  0.70345322    -0.04800
C302        C  0.71381487  0.78207359  0.79270818    -0.04200
C303        C  0.77749343  0.74565791  0.75979643    -0.04900
C304        C  0.74586366  0.81205444  0.72736069    -0.04800
C305        C  0.69101332  0.79164318  0.83047551    -0.30200
N306        N  0.64990564  0.77124259  0.82887322     0.16300
C307        C  0.64647989  0.74906846  0.79089341    -0.30200
H308        H  0.61769613  0.72956857  0.78068340     0.18200
C309        C  0.81616820  0.72072420  0.76601301    -0.29200
N310        N  0.81101507  0.68018570  0.74608975     0.15000
C311        C  0.76980193  0.67935222  0.72730932    -0.29200
C312        C  0.75419018  0.85007947  0.70301954    -0.29500
N313        N  0.73028369  0.84704229  0.66559442     0.15500
H314        H  0.77545024  0.87800692  0.71204483     0.18200
C315        C  0.70696251  0.80792191  0.66578868    -0.29500
H316        H  0.68511807  0.79649699  0.64010788     0.18200
H317        H  0.75632064  0.65152343  0.70898538     0.18200
H318        H  0.70375725  0.81140029  0.85702027     0.18200
H319        H  0.84571017  0.73170202  0.78334292     0.18200
C320        C  0.71492991  0.27445666  0.26533234     0.32100
C321        C  0.76017560  0.21381759  0.21683502     0.32100
C322        C  0.69031296  0.25822965  0.22488532    -0.04100
C323        C  0.76027839  0.29052068  0.24769264    -0.04900
C324        C  0.72695421  0.23029710  0.28807727    -0.04800
C325        C  0.71329660  0.22708175  0.19981192    -0.04200
C326        C  0.78326409  0.25942850  0.22275710    -0.04900
C327        C  0.75063970  0.19927574  0.26353059    -0.04800
C328        C  0.68556251  0.21661618  0.16550890    -0.30200
N329        N  0.64659191  0.24056562  0.16938944     0.16300
C330        C  0.64941930  0.26594649  0.20560085    -0.30200
H331        H  0.62359971  0.28862905  0.21692066     0.18200
C332        C  0.82352020  0.27861111  0.21127184    -0.29200
N333        N  0.82584093  0.32041652  0.22860511     0.15000
C334        C  0.78722454  0.32806465  0.25102510    -0.29200
C335        C  0.75825935  0.16224182  0.28951911    -0.29500
N336        N  0.73907013  0.17006131  0.32860041     0.15500
H337        H  0.77532119  0.13157714  0.28043199     0.18200
C338        C  0.71954439  0.21124927  0.32787665    -0.29500
H339        H  0.70141179  0.22617827  0.35444495     0.18200
H340        H  0.77936755  0.35805741  0.26908298     0.18200
H341        H  0.69356532  0.19350988  0.13982494     0.18200
H342        H  0.84977868  0.26290565  0.19250653     0.18200
C343        C  0.26922376  0.28117260  0.72390229     0.32100
C344        C  0.20692775  0.22974599  0.76437332     0.32100
C345        C  0.28352941  0.26216792  0.76794907    -0.04100
C346        C  0.22473365  0.30482352  0.73416526    -0.04900
C347        C  0.25401428  0.23915306  0.69925173    -0.04800
C348        C  0.25164810  0.23577602  0.78860053    -0.04200
C349        C  0.19267759  0.27872969  0.75506411    -0.04900
C350        C  0.22208856  0.21258223  0.71976209    -0.04800
C351        C  0.26981816  0.22260554  0.82765360    -0.30200
N352        N  0.31170527  0.24040152  0.83143196     0.16300
C353        C  0.32038697  0.26465249  0.79491326    -0.30200
H354        H  0.35099835  0.28279694  0.78808057     0.18200
C355        C  0.15642231  0.30657561  0.76327891    -0.29200
N356        N  0.16582433  0.34863617  0.74780445     0.15000
C357        C  0.20743660  0.34757153  0.72992580    -0.29200
C358        C  0.21366482  0.17644273  0.69278751    -0.29500
N359        N  0.23960547  0.18066405  0.65663007     0.15500
H360        H  0.19070057  0.14917631  0.69946673     0.18200
C361        C  0.26428613  0.21887284  0.66061734    -0.29500
H362        H  0.28834871  0.23089560  0.63714238     0.18200
H363        H  0.22421296  0.37612836  0.71542566     0.18200
H364        H  0.25358474  0.20190479  0.85180613     0.18200
H365        H  0.12588560  0.29670825  0.77953286     0.18200
C366        C  0.27387999  0.71765218  0.27276157     0.32100
C367        C  0.21898994  0.77816926  0.23397392     0.32100
C368        C  0.29251261  0.73939998  0.23146268    -0.04100
C369        C  0.22819698  0.69920502  0.25803425    -0.04900
C370        C  0.26070516  0.75838122  0.30044655    -0.04800
C371        C  0.26422892  0.77038968  0.21171251    -0.04200
C372        C  0.20026970  0.73041608  0.23802016    -0.04900
C373        C  0.23243715  0.78946382  0.28062784    -0.04800
C374        C  0.28499918  0.78474075  0.17451237    -0.30200
N375        N  0.32527996  0.76357707  0.17103697     0.16300
C376        C  0.33016324  0.73556138  0.20573827    -0.30200
H377        H  0.35831720  0.71340351  0.21168500     0.18200
C378        C  0.16164637  0.70843659  0.22625820    -0.29200
N379        N  0.16498839  0.66474895  0.23871361     0.15000
C380        C  0.20563227  0.65862804  0.25828684    -0.29200
C381        C  0.22405081  0.82286860  0.31038483    -0.29500
N382        N  0.24650930  0.81288225  0.34773913     0.15500
H383        H  0.20362123  0.85235455  0.30466573     0.18200
C384        C  0.26903158  0.77358949  0.34170246    -0.29500
H385        H  0.29012135  0.75732572  0.36560755     0.18200
H386        H  0.21809349  0.62731116  0.27151486     0.18200
H387        H  0.27151861  0.80845366  0.15126142     0.18200
H388        H  0.13294995  0.72318408  0.20999522     0.18200
C389        C  0.10343724  0.90203120  0.09296715     0.44500
N390        N  0.06041621  0.91666681  0.03955285     0.03400
C391        C  0.04673893  0.11603174  0.92467229    -0.04500
H392        H  0.03416898  0.13368332  0.09305840     0.08900
C393        C  0.88874809  0.04075164  0.08284014    -0.04800
Co394      Co  0.08454313  0.00355875  0.99656559     0.74200
N395        N  0.04747804  0.07826879  0.05010011    -0.24000
Co396      Co  0.99559246  0.07868014  0.00471617     0.74100
C397        C  0.90084744  0.08234065  0.10448409     0.44600
N398        N  0.92788381  0.93724331  0.04497935     0.03000
N399        N  0.94728925  0.07037344  0.05293823     0.03100
N400        N  0.10434275  0.06651753  0.91999158    -0.44900
H401        H  0.14526486  0.96601736  0.08223169     0.08900
N402        N  0.08152540  0.05002974  0.04680200     0.03400
N403        N  0.94407010  0.07698060  0.95912104     0.03100
C404        C  0.89750630  0.09399795  0.90912347     0.44700
N405        N  0.96135065  0.90837358  0.04184938    -0.23500
C406        C  0.11633283  0.95118032  0.91521509    -0.04400
N407        N  0.06802388  0.88657901  0.07035424    -0.44600
N408        N  0.93393534  0.10878667  0.93069584    -0.44800
C409        C  0.10323501  0.90969878  0.89371531     0.44500
N410        N  0.07728278  0.05651629  0.95255606     0.03400
N411        N  0.95736709  0.91508903  0.94786753    -0.23500
N412        N  0.08899908  0.95060318  0.04064755    -0.24000
N413        N  0.92382006  0.94390734  0.95119137     0.03000
H414        H  0.96935389  0.85939754  0.90478187     0.08900
H415        H  0.85598154  0.02996057  0.92049578     0.09000
N416        N  0.04343421  0.08501133  0.95601405    -0.24000
N417        N  0.91926572  0.03608330  0.05151678    -0.23600
N418        N  0.05756260  0.92260494  0.94555287     0.03400
C419        C  0.09776822  0.09055088  0.10161042     0.44800
C420        C  0.95697771  0.87713572  0.07284586    -0.04900
N421        N  0.91582524  0.04284856  0.95790856    -0.23600
H422        H  0.85913307  0.02015402  0.08693799     0.08900
N423        N  0.11267292  0.05662808  0.07672526    -0.44900
H424        H  0.97819582  0.84794637  0.07729966     0.08900
C425        C  0.90658489  0.90396171  0.89638898     0.44600
C426        C  0.11784446  0.94407348  0.07337155    -0.04400
Co427      Co  0.00925573  0.91459078  0.99351015     0.73800
N428        N  0.90012728  0.92750107  0.07688586    -0.44600
C429        C  0.08665121  0.10326116  0.90070834     0.44900
N430        N  0.06709798  0.89341059  0.91473401    -0.44600
Co431      Co  0.92088541  0.98987331  0.00143243     0.73900
C432        C  0.88488035  0.05075976  0.92737547    -0.04900
C433        C  0.05493995  0.10551446  0.08376123    -0.04500
N434        N  0.08603308  0.95658677  0.94671339    -0.24000
N435        N  0.93693129  0.09935997  0.08374218    -0.44800
H436        H  0.02449163  0.14438541  0.91990598     0.08900
C437        C  0.94920241  0.88797769  0.91417959    -0.04900
Cl438      Cl  0.00265406  0.99668264  0.99899134    -0.47900
C439        C  0.91692070  0.89058077  0.09627436     0.44700
H440        H  0.14604510  0.97149821  0.91054454     0.08900
N441        N  0.89253248  0.93806143  0.92135853    -0.44600
C442        C  0.60265442  0.40133779  0.40650822     0.44500
N443        N  0.58547341  0.44588457  0.45767687     0.03400
C444        C  0.38858575  0.44565311  0.57601562    -0.04500
H445        H  0.36884524  0.45887981  0.40655058     0.08900
C446        C  0.44969353  0.60475333  0.41144163    -0.04800
Co447      Co  0.50184088  0.41653498  0.50303160     0.74200
N448        N  0.42391373  0.44759756  0.45062631    -0.24000
Co449      Co  0.42050187  0.49929314  0.49509662     0.74100
C450        C  0.41027622  0.58675008  0.38973462     0.44600
N451        N  0.55500223  0.57699984  0.45020107     0.03000
N452        N  0.42412806  0.54675619  0.44568581     0.03100
N453        N  0.44223724  0.39187639  0.58008423    -0.44900
H454        H  0.54251619  0.35516236  0.42029479     0.08900
N455        N  0.45463846  0.41576155  0.45358533     0.03400
N456        N  0.41988055  0.55113898  0.53966405     0.03100
C457        C  0.40368213  0.59451969  0.59170509     0.44700
N458        N  0.58605175  0.54550142  0.45303032    -0.23500
C459        C  0.55513160  0.39416981  0.58676167    -0.04400
N460        N  0.61579538  0.43888669  0.42719394    -0.44600
N461        N  0.39004988  0.55746685  0.57064148    -0.44800
C462        C  0.59438152  0.41271025  0.60833666     0.44500
N463        N  0.44976990  0.42010374  0.54772070     0.03400
N464        N  0.58164058  0.55013376  0.54674060    -0.23500
N465        N  0.55381762  0.41483629  0.45829722    -0.24000
N466        N  0.55039978  0.58145959  0.54387330     0.03000
H467        H  0.63739280  0.54029016  0.59051703     0.08900
H468        H  0.46377025  0.64080574  0.57833809     0.09000
N469        N  0.41884172  0.45174214  0.54457258    -0.24000
N470        N  0.45590844  0.57759086  0.44549996    -0.23600
N471        N  0.58085274  0.45128455  0.55156728     0.03400
C472        C  0.41677465  0.39917455  0.39735945     0.44800
C473        C  0.61694866  0.55285033  0.42253745    -0.04900
N474        N  0.45157153  0.58211935  0.53922611    -0.23600
H475        H  0.46879462  0.63477874  0.40430719     0.08900
N476        N  0.45110866  0.38550191  0.42258344    -0.44900
H477        H  0.64825278  0.53475452  0.41911936     0.08900
C478        C  0.58846906  0.59937243  0.59955062     0.44600
C479        C  0.56209408  0.38491075  0.42712954    -0.04400
Co480      Co  0.58472979  0.49814452  0.50222336     0.73800
N481        N  0.56309072  0.60634543  0.41908958    -0.44600
C482        C  0.40469753  0.40652704  0.59981091     0.44900
N483        N  0.60901434  0.44751703  0.58437710    -0.44600
Co484      Co  0.50323622  0.58063616  0.49459305     0.73900
C485        C  0.44388498  0.61139705  0.57099725    -0.04900
C486        C  0.39807502  0.43966525  0.41616786    -0.04500
N487        N  0.54914462  0.42039666  0.55208030    -0.24000
N488        N  0.39562377  0.55144900  0.41314783    -0.44800
H489        H  0.35820952  0.46502894  0.58044947     0.08900
C490        C  0.60782708  0.55897693  0.58088537    -0.04900
Cl491      Cl  0.50257854  0.49864637  0.49870558    -0.47900
C492        C  0.60113502  0.59274262  0.39978400     0.44700
H493        H  0.53626503  0.36408674  0.59423333     0.08900
N494        N  0.55365337  0.61200690  0.57457812    -0.44600
C495        C  0.18949765  0.80999995  0.21139923    -0.16500
C496        C  0.16708445  0.83344510  0.18801548     0.07600
C497        C  0.14317742  0.85848384  0.15680798     0.09500
C498        C  0.12440883  0.87865835  0.12821619    -0.17300
C499        C  0.30369465  0.68529662  0.29398017    -0.16500
C500        C  0.32863926  0.66040231  0.31311456     0.07600
C501        C  0.35780591  0.63317311  0.33761346     0.09500
C502        C  0.38223371  0.61129882  0.36042175    -0.17300
C503        C  0.37921945  0.38032281  0.63011676    -0.16500
C504        C  0.35653281  0.35812902  0.65432053     0.07600
C505        C  0.32827986  0.33180018  0.68081011     0.09500
C506        C  0.30257401  0.30905631  0.70148123    -0.17300
C507        C  0.10837637  0.12907152  0.86740814    -0.16500
C508        C  0.12713343  0.15155691  0.84041162     0.07600
C509        C  0.15105022  0.17851792  0.81061139     0.09500
C510        C  0.17426052  0.20172995  0.78770427    -0.17300
C511        C  0.78614768  0.18168492  0.19103867    -0.16500
C512        C  0.81123632  0.15763418  0.17113415     0.07600
C513        C  0.84283726  0.13125941  0.14854453     0.09500
C514        C  0.86998694  0.10920129  0.12899899    -0.17300
C515        C  0.62775336  0.37903217  0.37348325    -0.16500
C516        C  0.64780678  0.35817067  0.34645095     0.07600
C517        C  0.67080833  0.33143729  0.31624864     0.09500
C518        C  0.69055929  0.30674087  0.29214869    -0.17300
C519        C  0.67357682  0.71227559  0.69894536    -0.16500
C520        C  0.65169828  0.68657813  0.67784638     0.07600
C521        C  0.62865725  0.65532546  0.65229750     0.09500
C522        C  0.61015561  0.62895522  0.62909263    -0.17300
C523        C  0.87744902  0.88060753  0.86703508    -0.16500
C524        C  0.85070543  0.86207737  0.84385576     0.07600
C525        C  0.81823023  0.84014123  0.81816189     0.09500
C526        C  0.79087432  0.81995454  0.79701846    -0.17300
C527        C  0.37992381  0.25531299  0.87370172    -0.14400
C528        C  0.34073001  0.23333089  0.86842108    -0.29600
H529        H  0.39127458  0.27846119  0.84895587     0.14600
H530        H  0.33049417  0.20905678  0.89277061     0.15200
C531        C  0.60650907  0.21797051  0.10381986    -0.14400
C532        C  0.60850266  0.24196108  0.14040017    -0.29600
H533        H  0.63413588  0.19608929  0.09513637     0.14600
H534        H  0.58123582  0.26508997  0.14750239     0.15200
C535        C  0.61506072  0.76980664  0.86114469    -0.14400
C536        C  0.61620248  0.79389422  0.89768412    -0.29600
H537        H  0.58692662  0.74717149  0.85593360     0.14600
H538        H  0.64462384  0.81559560  0.90430417     0.15200
C539        C  0.35559115  0.77043570  0.13521088    -0.14400
C540        C  0.39610105  0.75045156  0.13236599    -0.29600
H541        H  0.34525040  0.79328346  0.10958903     0.14600
H542        H  0.40819759  0.72974910  0.15881656     0.15200
C543        C  0.86989228  0.12179780  0.88211269    -0.16500
C544        C  0.84630695  0.14501010  0.85964890     0.07600
C545        C  0.81900968  0.17224169  0.83314293     0.09500
C546        C  0.79673029  0.19577118  0.80977760    -0.17300
C547        C  0.62401340  0.38674852  0.63443192    -0.16500
C548        C  0.64971560  0.36314064  0.65378528     0.07600
C549        C  0.67905765  0.33399531  0.67535593     0.09500
C550        C  0.70233749  0.30864999  0.69551312    -0.17300
C551        C  0.61797367  0.25617601  0.84876946    -0.14400
C552        C  0.61309966  0.23045855  0.88418536    -0.29600
H553        H  0.59214243  0.28077208  0.84099196     0.14600
H554        H  0.63906020  0.20650909  0.89291459     0.15200
C555        C  0.13801580  0.38866113  0.74867398    -0.14400
C556        C  0.09807295  0.39051977  0.76888213    -0.29600
H557        H  0.14952507  0.41827234  0.73128299     0.14600
H558        H  0.08530789  0.36079543  0.78504804     0.15200
C559        C  0.88085246  0.64176622  0.76667645    -0.14400
C560        C  0.84244755  0.64326417  0.74373028    -0.29600
H561        H  0.89011444  0.66998830  0.78683213     0.14600
H562        H  0.83430834  0.61522018  0.72274163     0.15200
C563        C  0.86726608  0.40768119  0.74933495    -0.14400
C564        C  0.86777771  0.36698979  0.76865869    -0.29600
H565        H  0.83784567  0.41862518  0.73150380     0.14600
H566        H  0.89642754  0.35788196  0.78866352     0.15200
C567        C  0.21008880  0.80572137  0.80302662    -0.16500
C568        C  0.18575803  0.83043441  0.82303626     0.07600
C569        C  0.15687691  0.85872775  0.84679158     0.09500
C570        C  0.13222820  0.88232289  0.86767915    -0.17300
C571        C  0.31933289  0.68752694  0.70816343    -0.16500
C572        C  0.33921320  0.66290061  0.68435318     0.07600
C573        C  0.36088816  0.63616121  0.65365313     0.09500
C574        C  0.37973069  0.61569286  0.62579206    -0.17300
C575        C  0.38078150  0.77147554  0.90702768    -0.14400
C576        C  0.38357978  0.75054278  0.86862874    -0.29600
H577        H  0.34967007  0.78767550  0.91635109     0.14600
H578        H  0.41423381  0.73231069  0.86116422     0.15200
C579        C  0.15074710  0.62672170  0.76055566    -0.14400
C580        C  0.11136219  0.62846617  0.78157132    -0.29600
H581        H  0.15772270  0.59764709  0.74050771     0.14600
H582        H  0.10314767  0.65783100  0.80061362     0.15200
C583        C  0.77302793  0.11564052  0.37726582    -0.14400
C584        C  0.73716147  0.13978242  0.36475203    -0.29600
H585        H  0.80355279  0.11727984  0.35826526     0.14600
H586        H  0.70660042  0.13865114  0.38380792     0.15200
C587        C  0.76504827  0.90298896  0.61926762    -0.14400
C588        C  0.72877829  0.87910690  0.63082341    -0.29600
H589        H  0.79569870  0.90007749  0.63808350     0.14600
H590        H  0.69823866  0.88166606  0.61167745     0.15200
C591        C  0.75256204  0.13179643  0.64344917    -0.14400
C592        C  0.76687367  0.13569350  0.60242091    -0.29600
H593        H  0.74044456  0.09973407  0.65549103     0.14600
H594        H  0.77878992  0.16834748  0.59167597     0.15200
C595        C  0.24933792  0.83945044  0.38683229    -0.14400
C596        C  0.22418072  0.87649510  0.39324631    -0.29600
H597        H  0.27408910  0.83013906  0.41109568     0.14600
H598        H  0.20039761  0.88684651  0.36860745     0.15200
C599        C  0.21861763  0.11281221  0.61571236    -0.14400
C600        C  0.24311825  0.15065744  0.61993254    -0.29600
H601        H  0.19545749  0.10331496  0.64108258     0.14600
H602        H  0.26770414  0.15846309  0.59515876     0.15200
C603        C  0.23504337  0.88329964  0.62361260    -0.14400
C604        C  0.26248928  0.84762106  0.62834756    -0.29600
H605        H  0.21259873  0.89232521  0.64966163     0.14600
H606        H  0.28562712  0.83963885  0.60240948     0.15200
C607        C  0.70248074  0.70649811  0.31656131    -0.16500
C608        C  0.67928028  0.68172831  0.33735370     0.07600
C609        C  0.65247403  0.65018188  0.35879851     0.09500
C610        C  0.62930608  0.62309656  0.37678960    -0.17300
C611        C  0.81256416  0.79902313  0.19939886    -0.16500
C612        C  0.83796418  0.81855427  0.17588978     0.07600
C613        C  0.86767162  0.84206858  0.14894205     0.09500
C614        C  0.89156118  0.86338239  0.12538216    -0.17300
C615        C  0.63148213  0.75145921  0.15426005    -0.14400
C616        C  0.62827497  0.77880795  0.11977253    -0.29600
H617        H  0.60448966  0.72781750  0.16074423     0.14600
H618        H  0.65519775  0.80222762  0.11271969     0.15200
C619        C  0.76182524  0.88463417  0.35449503    -0.14400
C620        C  0.77368937  0.88274455  0.39634103    -0.29600
H621        H  0.75126390  0.91613026  0.33987588     0.14600
H622        H  0.78416470  0.85035303  0.40916670     0.15200
C623        C  0.12932593  0.59109530  0.24961544    -0.14400
C624        C  0.12939450  0.63263374  0.23221658    -0.29600
H625        H  0.15881728  0.57843434  0.26628777     0.14600
H626        H  0.10014594  0.64353436  0.21388908     0.15200
C627        C  0.86839970  0.38902491  0.24451875    -0.14400
C628        C  0.86460702  0.34921783  0.22436145    -0.29600
H629        H  0.84033817  0.40229452  0.26268566     0.14600
H630        H  0.89228485  0.33768746  0.20446096     0.15200
C631        C  0.89884394  0.62052474  0.23812554    -0.14400
C632        C  0.85874093  0.62223290  0.25788363    -0.29600
H633        H  0.91236612  0.65052536  0.22302488     0.14600
H634        H  0.84715641  0.59281139  0.27553248     0.15200
C635        C  0.39315258  0.37037704  0.36854327    -0.16500
C636        C  0.37018165  0.34723015  0.34588090     0.07600
C637        C  0.34090286  0.32090547  0.32114295     0.09500
C638        C  0.31533998  0.29804343  0.30087909    -0.17300
C639        C  0.12558539  0.11487303  0.13150441    -0.16500
C640        C  0.14924576  0.13588234  0.15583482     0.07600
C641        C  0.17719713  0.16143451  0.18335043     0.09500
C642        C  0.20126654  0.18428821  0.20567770    -0.17300
C643        C  0.36948964  0.22381041  0.09896138    -0.14400
C644        C  0.37267760  0.24278561  0.13825420    -0.29600
H645        H  0.33859862  0.20723300  0.08947343     0.14600
H646        H  0.40295327  0.26156546  0.14593222     0.15200
C647        C  0.25434699  0.14077544  0.38122568    -0.14400
C648        C  0.22790427  0.10445282  0.38571964    -0.29600
H649        H  0.27668505  0.14959956  0.40766045     0.14600
H650        H  0.20667705  0.09409663  0.35909169     0.15200
C651        C  0.14291574  0.36081750  0.25619473    -0.14400
C652        C  0.10257901  0.35973858  0.23640103    -0.29600
H653        H  0.15210996  0.39081855  0.27407116     0.14600
H654        H  0.09158021  0.32942240  0.22021445     0.15200
loop_ 
_geom_bond_atom_site_label_1 
_geom_bond_atom_site_label_2 
_geom_bond_distance 
_geom_bond_site_symmetry_2 
_ccdc_geom_bond_type 
C1            C3   1.547       .  S
C1            C5   1.548       .  S
C1            C4   1.542       .  S
C1          C642   1.470       .  S
C2            C6   1.525       .  S
C2            C8   1.526       .  S
C2            C7   1.528       .  S
C2          C638   1.458       .  S
C3           C11   1.389       .  A
C3            C6   1.388       .  A
C4           C15   1.384       .  A
C4            C7   1.390       .  A
C5           C19   1.387       .  A
C5            C8   1.390       .  A
C6            C9   1.372       .  A
C7           C13   1.373       .  A
C8           C16   1.374       .  A
C9           N10   1.356       .  A
C9           H22   1.083       .  S
N10          C11   1.368       .  A
N10         C644   1.447       .  S
C11          H12   1.081       .  S
C13          N14   1.358       .  A
C13          H23   1.083       .  S
N14          C15   1.366       .  A
N14         C651   1.444       .  S
C15          H21   1.081       .  S
C16          N17   1.356       .  A
C16          H18   1.083       .  S
N17          C19   1.369       .  A
N17         C647   1.448       .  S
C19          H20   1.081       .  S
N24          C29   1.352       .  A
N24          C28   1.355       .  A
N24          H56   1.039       .  S
N25          C32   1.351   1_455  A
N25          C33   1.351       .  A
N26          C31   1.353       .  A
N26          C30   1.354       .  A
N26          H57   1.040       .  S
N27          C34   1.354       .  A
N27          C35   1.354   1_655  A
C28          C36   1.387       .  A
C28          C44   1.417       .  A
C29          C45   1.414       .  A
C29          C37   1.386       .  A
C30          C38   1.385       .  A
C30          C47   1.412       .  A
C31          C46   1.419       .  A
C31          C39   1.388       .  A
C32          C44   1.409       .  A
C32          C40   1.385       .  A
C33          C47   1.414       .  A
C33          C41   1.387       .  A
C34          C42   1.387       .  A
C34          C45   1.419       .  A
C35          C43   1.385       .  A
C35          C46   1.415       .  A
C36          C37   1.378       .  A
C36          H48   1.082       .  S
C37          H49   1.082       .  S
C38          C39   1.377       .  A
C38          H50   1.082       .  S
C39          H51   1.082       .  S
C40          C41   1.372   1_655  A
C40          H52   1.082       .  S
C41          H53   1.082       .  S
C42          C43   1.375   1_655  A
C42          H54   1.082       .  S
C43          H55   1.082       .  S
C44         C631   1.493       .  S
C45         C627   1.494       .  S
C46         C652   1.499       .  S
C47         C623   1.495       .  S
C58          C60   1.535       .  S
C58          C62   1.535       .  S
C58          C61   1.537       .  S
C58         C611   1.459       .  S
C59          C63   1.531       .  S
C59          C65   1.533       .  S
C59          C64   1.527       .  S
C59         C607   1.455       .  S
C60          C68   1.379       .  A
C60          C63   1.388       .  A
C61          C72   1.381       .  A
C61          C64   1.386       .  A
C62          C76   1.378       .  A
C62          C65   1.391       .  A
C63          C66   1.374       .  A
C64          C70   1.374       .  A
C65          C73   1.378       .  A
C66          N67   1.357       .  A
C66          H79   1.083       .  S
N67          C68   1.365       .  A
N67         C615   1.442       .  S
C68          H69   1.081       .  S
C70          N71   1.357       .  A
C70          H80   1.083       .  S
N71          C72   1.365       .  A
N71         C632   1.443       .  S
C72          H78   1.081       .  S
C73          N74   1.360       .  A
C73          H75   1.082       .  S
N74          C76   1.358       .  A
N74         C619   1.437       .  S
C76          H77   1.082       .  S
N81          C86   1.356       .  A
N81          C85   1.356   1_565  A
N81         H113   1.038       .  S
N82          C89   1.355       .  A
N82          C90   1.356       .  A
N83          C88   1.357       .  A
N83          C87   1.358   1_565  A
N83         H114   1.037       .  S
N84          C91   1.356       .  A
N84          C92   1.355       .  A
C85          C93   1.388       .  A
C85         C101   1.417       .  A
C86         C102   1.415       .  A
C86          C94   1.386       .  A
C87          C95   1.386       .  A
C87         C104   1.419       .  A
C88         C103   1.421       .  A
C88          C96   1.388       .  A
C89         C101   1.421       .  A
C89          C97   1.386       .  A
C90         C104   1.422       .  A
C90          C98   1.386       .  A
C91          C99   1.385       .  A
C91         C102   1.419       .  A
C92         C100   1.387       .  A
C92         C103   1.422       .  A
C93          C94   1.372   1_545  A
C93         H105   1.082       .  S
C94         H106   1.083       .  S
C95          C96   1.373   1_545  A
C95         H107   1.082       .  S
C96         H108   1.082       .  S
C97          C98   1.379       .  A
C97         H109   1.082       .  S
C98         H110   1.082       .  S
C99         C100   1.379       .  A
C99         H111   1.082       .  S
C100        H112   1.082       .  S
C101        C648   1.498       .  S
C102        C596   1.499       .  S
C103        C603   1.499       .  S
C104        C599   1.504       .  S
N115        C120   1.356   1_545  A
N115        C119   1.353       .  A
N115        H147   1.042       .  S
N116        C123   1.353       .  A
N116        C124   1.354       .  A
N117        C122   1.354   1_545  A
N117        C121   1.355       .  A
N117        H148   1.043       .  S
N118        C125   1.353       .  A
N118        C126   1.353       .  A
C119        C127   1.387       .  A
C119        C135   1.414       .  A
C120        C136   1.419       .  A
C120        C128   1.387       .  A
C121        C129   1.387       .  A
C121        C138   1.419       .  A
C122        C137   1.412       .  A
C122        C130   1.386       .  A
C123        C135   1.419       .  A
C123        C131   1.388       .  A
C124        C138   1.417       .  A
C124        C132   1.385       .  A
C125        C133   1.386       .  A
C125        C136   1.415       .  A
C126        C134   1.388       .  A
C126        C137   1.416       .  A
C127        C128   1.376   1_545  A
C127        H139   1.082       .  S
C128        H140   1.082       .  S
C129        C130   1.374   1_545  A
C129        H141   1.082       .  S
C130        H142   1.082       .  S
C131        C132   1.373       .  A
C131        H143   1.081       .  S
C132        H144   1.082       .  S
C133        C134   1.372       .  A
C133        H145   1.082       .  S
C134        H146   1.080       .  S
C135        C583   1.491       .  S
C136        C620   1.500       .  S
C137        C587   1.489       .  S
C138        C592   1.504       .  S
C149        C151   1.529       .  S
C149        C153   1.529       .  S
C149        C152   1.526       .  S
C149        C571   1.457       .  S
C150        C154   1.545       .  S
C150        C156   1.546       .  S
C150        C155   1.543       .  S
C150        C567   1.469       .  S
C151        C159   1.377       .  A
C151        C154   1.388       .  A
C152        C163   1.373       .  A
C152        C155   1.388       .  A
C153        C167   1.374       .  A
C153        C156   1.391       .  A
C154        C157   1.385       .  A
C155        C161   1.385       .  A
C156        C164   1.386       .  A
C157        N158   1.368       .  A
C157        H170   1.081       .  S
N158        C159   1.358       .  A
N158        C604   1.449       .  S
C159        H160   1.083       .  S
C161        N162   1.367       .  A
C161        H171   1.081       .  S
N162        C163   1.356       .  A
N162        C579   1.446       .  S
C163        H169   1.083       .  S
C164        N165   1.367       .  A
C164        H166   1.081       .  S
N165        C167   1.359       .  A
N165        C576   1.448       .  S
C167        H168   1.083       .  S
N172        C177   1.357       .  A
N172        C176   1.356       .  A
N172        H204   1.040       .  S
N173        C180   1.353   1_655  A
N173        C181   1.354       .  A
N174        C179   1.354       .  A
N174        C178   1.355       .  A
N174        H205   1.041       .  S
N175        C182   1.353   1_655  A
N175        C183   1.354       .  A
C176        C184   1.388       .  A
C176        C192   1.423       .  A
C177        C193   1.422       .  A
C177        C185   1.386       .  A
C178        C186   1.388       .  A
C178        C195   1.418       .  A
C179        C194   1.415       .  A
C179        C187   1.386       .  A
C180        C192   1.416       .  A
C180        C188   1.388       .  A
C181        C195   1.414       .  A
C181        C189   1.386       .  A
C182        C190   1.386       .  A
C182        C193   1.413       .  A
C183        C191   1.386       .  A
C183        C194   1.416       .  A
C184        C185   1.380       .  A
C184        H196   1.082       .  S
C185        H197   1.082       .  S
C186        C187   1.377       .  A
C186        H198   1.082       .  S
C187        H199   1.082       .  S
C188        C189   1.371   1_455  A
C188        H200   1.082       .  S
C189        H201   1.082       .  S
C190        C191   1.371   1_455  A
C190        H202   1.082       .  S
C191        H203   1.082       .  S
C192        C580   1.497       .  S
C193        C556   1.500       .  S
C194        C563   1.495       .  S
C195        C559   1.497       .  S
C206        C208   1.535       .  S
C206        C210   1.536       .  S
C206        C209   1.537       .  S
C206        C546   1.463       .  S
C207        C211   1.531       .  S
C207        C213   1.534       .  S
C207        C212   1.528       .  S
C207        C550   1.453       .  S
C208        C216   1.379       .  A
C208        C211   1.387       .  A
C209        C220   1.378       .  A
C209        C212   1.387       .  A
C210        C224   1.377       .  A
C210        C213   1.391       .  A
C211        C214   1.376       .  A
C212        C218   1.376       .  A
C213        C221   1.380       .  A
C214        N215   1.358       .  A
C214        H227   1.083       .  S
N215        C216   1.366       .  A
N215        C551   1.444       .  S
C216        H217   1.081       .  S
C218        N219   1.362       .  A
C218        H228   1.081       .  S
N219        C220   1.361       .  A
N219        C564   1.444       .  S
C220        H226   1.082       .  S
C221        N222   1.360       .  A
C221        H223   1.082       .  S
N222        C224   1.358       .  A
N222        C591   1.438       .  S
C224        H225   1.082       .  S
N229        C234   1.356       .  A
N229        C233   1.355       .  A
N229        H261   1.039       .  S
N230        C237   1.356       .  A
N230        C238   1.355   1_554  A
N231        C236   1.357       .  A
N231        C235   1.356       .  A
N231        H262   1.040       .  S
N232        C239   1.353       .  A
N232        C240   1.353   1_554  A
C233        C241   1.387       .  A
C233        C249   1.418       .  A
C234        C250   1.419       .  A
C234        C242   1.387       .  A
C235        C243   1.388       .  A
C235        C252   1.422       .  A
C236        C251   1.421       .  A
C236        C244   1.386       .  A
C237        C249   1.421       .  A
C237        C245   1.387       .  A
C238        C252   1.418       .  A
C238        C246   1.386       .  A
C239        C247   1.387       .  A
C239        C250   1.412       .  A
C240        C248   1.387       .  A
C240        C251   1.412       .  A
C241        C242   1.376       .  A
C241        H253   1.082       .  S
C242        H254   1.082       .  S
C243        C244   1.376       .  A
C243        H255   1.082       .  S
C244        H256   1.082       .  S
C245        C246   1.373   1_554  A
C245        H257   1.082       .  S
C246        H258   1.082       .  S
C247        C248   1.369   1_554  A
C247        H259   1.082       .  S
C248        H260   1.082       .  S
C249        C540   1.499       .  S
C250        C616   1.493       .  S
C251        C536   1.496       .  S
C252        C575   1.502       .  S
N263        C268   1.354       .  A
N263        C267   1.357       .  A
N263        H295   1.040       .  S
N264        C271   1.352       .  A
N264        C272   1.351   1_556  A
N265        C270   1.356       .  A
N265        C269   1.357       .  A
N265        H296   1.040       .  S
N266        C273   1.357       .  A
N266        C274   1.356   1_556  A
C267        C275   1.387       .  A
C267        C283   1.419       .  A
C268        C284   1.417       .  A
C268        C276   1.387       .  A
C269        C277   1.385       .  A
C269        C286   1.419       .  A
C270        C285   1.424       .  A
C270        C278   1.389       .  A
C271        C283   1.411       .  A
C271        C279   1.386       .  A
C272        C286   1.411       .  A
C272        C280   1.387       .  A
C273        C281   1.386       .  A
C273        C284   1.421       .  A
C274        C282   1.386       .  A
C274        C285   1.419       .  A
C275        C276   1.375       .  A
C275        H287   1.082       .  S
C276        H288   1.082       .  S
C277        C278   1.377       .  A
C277        H289   1.082       .  S
C278        H290   1.082       .  S
C279        C280   1.369   1_556  A
C279        H291   1.083       .  S
C280        H292   1.082       .  S
C281        C282   1.375   1_556  A
C281        H293   1.082       .  S
C282        H294   1.082       .  S
C283        C552   1.493       .  S
C284        C527   1.498       .  S
C285        C643   1.504       .  S
C286        C531   1.493       .  S
C297        C299   1.525       .  S
C297        C301   1.527       .  S
C297        C300   1.527       .  S
C297        C519   1.459       .  S
C298        C302   1.545       .  S
C298        C304   1.540       .  S
C298        C303   1.539       .  S
C298        C526   1.469       .  S
C299        C307   1.370       .  A
C299        C302   1.391       .  A
C300        C311   1.374       .  A
C300        C303   1.387       .  A
C301        C315   1.373       .  A
C301        C304   1.392       .  A
C302        C305   1.385       .  A
C303        C309   1.382       .  A
C304        C312   1.380       .  A
C305        N306   1.368       .  A
C305        H318   1.081       .  S
N306        C307   1.355       .  A
N306        C535   1.444       .  S
C307        H308   1.083       .  S
C309        N310   1.366       .  A
C309        H319   1.081       .  S
N310        C311   1.357       .  A
N310        C560   1.445       .  S
C311        H317   1.083       .  S
C312        N313   1.363       .  A
C312        H314   1.082       .  S
N313        C315   1.356       .  A
N313        C588   1.437       .  S
C315        H316   1.083       .  S
C320        C322   1.531       .  S
C320        C324   1.530       .  S
C320        C323   1.534       .  S
C320        C518   1.466       .  S
C321        C325   1.542       .  S
C321        C327   1.536       .  S
C321        C326   1.533       .  S
C321        C511   1.469       .  S
C322        C330   1.374       .  A
C322        C325   1.392       .  A
C323        C334   1.380       .  A
C323        C326   1.389       .  A
C324        C338   1.374       .  A
C324        C327   1.391       .  A
C325        C328   1.381       .  A
C326        C332   1.375       .  A
C327        C335   1.380       .  A
C328        N329   1.367       .  A
C328        H341   1.081       .  S
N329        C330   1.358       .  A
N329        C532   1.446       .  S
C330        H331   1.083       .  S
C332        N333   1.358       .  A
C332        H342   1.083       .  S
N333        C334   1.365       .  A
N333        C628   1.444       .  S
C334        H340   1.081       .  S
C335        N336   1.362       .  A
C335        H337   1.082       .  S
N336        C338   1.356       .  A
N336        C584   1.436       .  S
C338        H339   1.083       .  S
C343        C345   1.535       .  S
C343        C347   1.536       .  S
C343        C346   1.534       .  S
C343        C506   1.469       .  S
C344        C348   1.538       .  S
C344        C350   1.544       .  S
C344        C349   1.543       .  S
C344        C510   1.471       .  S
C345        C353   1.380       .  A
C345        C348   1.388       .  A
C346        C357   1.377       .  A
C346        C349   1.391       .  A
C347        C361   1.378       .  A
C347        C350   1.390       .  A
C348        C351   1.380       .  A
C349        C355   1.385       .  A
C350        C358   1.387       .  A
C351        N352   1.360       .  A
C351        H364   1.083       .  S
N352        C353   1.365       .  A
N352        C528   1.449       .  S
C353        H354   1.081       .  S
C355        N356   1.368       .  A
C355        H365   1.081       .  S
N356        C357   1.359       .  A
N356        C555   1.450       .  S
C357        H363   1.083       .  S
C358        N359   1.368       .  A
C358        H360   1.081       .  S
N359        C361   1.360       .  A
N359        C600   1.453       .  S
C361        H362   1.083       .  S
C366        C368   1.537       .  S
C366        C370   1.539       .  S
C366        C369   1.536       .  S
C366        C499   1.462       .  S
C367        C371   1.533       .  S
C367        C373   1.538       .  S
C367        C372   1.531       .  S
C367        C495   1.465       .  S
C368        C376   1.382       .  A
C368        C371   1.388       .  A
C369        C380   1.382       .  A
C369        C372   1.389       .  A
C370        C384   1.380       .  A
C370        C373   1.390       .  A
C371        C374   1.376       .  A
C372        C378   1.373       .  A
C373        C381   1.382       .  A
C374        N375   1.359       .  A
C374        H387   1.083       .  S
N375        C376   1.365       .  A
N375        C539   1.447       .  S
C376        H377   1.081       .  S
C378        N379   1.358       .  A
C378        H388   1.083       .  S
N379        C380   1.364       .  A
N379        C624   1.442       .  S
C380        H386   1.081       .  S
C381        N382   1.367       .  A
C381        H383   1.081       .  S
N382        C384   1.361       .  A
N382        C595   1.452       .  S
C384        H385   1.082       .  S
C389        N407   1.347       .  A
C389        C426   1.454       .  S
C389        C498   1.434       .  S
N390        N407   1.325       .  A
N390        N412   1.321       .  A
N390       Co427   2.086   1_554  S
C391        N416   1.341       .  A
C391        H436   1.081       .  S
C391        C429   1.454       .  S
H392        C433   1.082       .  S
C393        N417   1.339       .  A
C393        H422   1.082       .  S
C393        C397   1.455       .  S
Co394       N412   2.085   1_546  S
Co394       N402   2.089   1_556  S
Co394       N434   2.088   1_545  S
Co394       N410   2.090       .  S
Co394      Cl438   2.449   1_545  S
N395        C433   1.342       .  A
N395        N402   1.321       .  A
N395       Co396   2.087   1_455  S
Co396       N399   2.091       .  S
Co396       N416   2.087   1_654  S
Co396       N403   2.084   1_554  S
Co396      Cl438   2.455   1_644  S
C397        N435   1.351       .  A
C397        C514   1.438       .  S
N398        N405   1.319       .  A
N398        N428   1.322       .  A
N398       Co431   2.073       .  S
N399        N417   1.319       .  A
N399        N435   1.326       .  A
N400        C429   1.350       .  A
N400        N410   1.326       .  A
H401        C426   1.081       .  S
N402        N423   1.325       .  A
N403        N421   1.320       .  A
N403        N408   1.324       .  A
C404        N408   1.348       .  A
C404        C432   1.453       .  S
C404        C543   1.432       .  S
N405        C420   1.341       .  A
N405       Co427   2.079   1_654  S
C406        N434   1.341       .  A
C406        H440   1.082       .  S
C406        C409   1.458       .  S
C409        N430   1.349       .  A
C409        C570   1.438       .  S
N410        N416   1.321       .  A
N411        C437   1.344       .  A
N411        N413   1.320       .  A
N411       Co427   2.092   1_655  S
N412        C426   1.341       .  A
N413        N441   1.323       .  A
N413       Co431   2.079   1_556  S
H414        C437   1.082       .  S
H415        C432   1.082       .  S
N417       Co431   2.078   1_545  S
N418        N430   1.325       .  A
N418        N434   1.320       .  A
N418       Co427   2.084       .  S
C419        N423   1.348       .  A
C419        C433   1.457       .  S
C419        C639   1.439       .  S
C420        H424   1.082       .  S
C420        C439   1.455       .  S
N421        C432   1.339       .  A
N421       Co431   2.075   1_546  S
C425        N441   1.346       .  A
C425        C437   1.461       .  S
C425        C523   1.437       .  S
Co427      Cl438   2.456       .  S
N428        C439   1.345       .  A
C429        C507   1.439       .  S
Co431      Cl438   2.445   1_654  S
C439        C614   1.427       .  S
C442        N460   1.348       .  A
C442        C479   1.452       .  S
C442        C515   1.434       .  S
N443        N460   1.326       .  A
N443        N465   1.320       .  A
N443       Co480   2.084       .  S
C444        N469   1.341       .  A
C444        H489   1.082       .  S
C444        C482   1.456       .  S
H445        C486   1.082       .  S
C446        N470   1.339       .  A
C446        H475   1.082       .  S
C446        C450   1.455       .  S
Co447       N465   2.082       .  S
Co447       N455   2.077       .  S
Co447       N487   2.074       .  S
Co447       N463   2.085       .  S
Co447      Cl491   2.446       .  S
N448        C486   1.337       .  A
N448        N455   1.319       .  A
N448       Co449   2.072       .  S
Co449       N452   2.082       .  S
Co449       N469   2.083       .  S
Co449       N456   2.075       .  S
Co449      Cl491   2.446       .  S
C450        N488   1.348       .  A
C450        C502   1.430       .  S
N451        N458   1.318       .  A
N451        N481   1.321       .  A
N451       Co484   2.072       .  S
N452        N470   1.318       .  A
N452        N488   1.323       .  A
N453        C482   1.349       .  A
N453        N463   1.325       .  A
H454        C479   1.081       .  S
N455        N476   1.323       .  A
N456        N474   1.320       .  A
N456        N461   1.324       .  A
C457        N461   1.346       .  A
C457        C485   1.449       .  S
C457        C574   1.425       .  S
N458        C473   1.338       .  A
N458       Co480   2.072       .  S
C459        N487   1.337       .  A
C459        H493   1.082       .  S
C459        C462   1.455       .  S
C462        N483   1.345       .  A
C462        C547   1.421       .  S
N463        N469   1.319       .  A
N464        C490   1.340       .  A
N464        N466   1.319       .  A
N464       Co480   2.079       .  S
N465        C479   1.340       .  A
N466        N494   1.322       .  A
N466       Co484   2.073       .  S
H467        C490   1.082       .  S
H468        C485   1.081       .  S
N470       Co484   2.074       .  S
N471        N483   1.321       .  A
N471        N487   1.318       .  A
N471       Co480   2.069       .  S
C472        N476   1.347       .  A
C472        C486   1.452       .  S
C472        C635   1.425       .  S
C473        H477   1.082       .  S
C473        C492   1.455       .  S
N474        C485   1.337       .  A
N474       Co484   2.072       .  S
C478        N494   1.345       .  A
C478        C490   1.455       .  S
C478        C522   1.426       .  S
Co480      Cl491   2.449       .  S
N481        C492   1.345       .  A
C482        C503   1.437       .  S
Co484      Cl491   2.442       .  S
C492        C610   1.423       .  S
C495        C496   1.204       .  T
C496        C497   1.410       .  S
C497        C498   1.204       .  T
C499        C500   1.202       .  T
C500        C501   1.406       .  S
C501        C502   1.202       .  T
C503        C504   1.206       .  T
C504        C505   1.412       .  S
C505        C506   1.206       .  T
C507        C508   1.208       .  T
C508        C509   1.415       .  S
C509        C510   1.207       .  T
C511        C512   1.207       .  T
C512        C513   1.414       .  S
C513        C514   1.207       .  T
C515        C516   1.204       .  T
C516        C517   1.409       .  S
C517        C518   1.204       .  T
C519        C520   1.200       .  T
C520        C521   1.402       .  S
C521        C522   1.200       .  T
C523        C524   1.206       .  T
C524        C525   1.413       .  S
C525        C526   1.206       .  T
C527        C528   1.348       .  D
C527        H529   1.084       .  S
C528        H530   1.087       .  S
C531        C532   1.343       .  D
C531        H533   1.084       .  S
C532        H534   1.087       .  S
C535        C536   1.343       .  D
C535        H537   1.087       .  S
C536        H538   1.085       .  S
C539        C540   1.348       .  D
C539        H541   1.087       .  S
C540        H542   1.084       .  S
C543        C544   1.203       .  T
C544        C545   1.408       .  S
C545        C546   1.203       .  T
C547        C548   1.197       .  T
C548        C549   1.398       .  S
C549        C550   1.197       .  T
C551        C552   1.344       .  D
C551        H553   1.087       .  S
C552        H554   1.084       .  S
C555        C556   1.347       .  D
C555        H557   1.087       .  S
C556        H558   1.084       .  S
C559        C560   1.346       .  D
C559        H561   1.084       .  S
C560        H562   1.087       .  S
C563        C564   1.348       .  D
C563        H565   1.084       .  S
C564        H566   1.087       .  S
C567        C568   1.206       .  T
C568        C569   1.413       .  S
C569        C570   1.207       .  T
C571        C572   1.199       .  T
C572        C573   1.401       .  S
C573        C574   1.199       .  T
C575        C576   1.348       .  D
C575        H577   1.084       .  S
C576        H578   1.087       .  S
C579        C580   1.344       .  D
C579        H581   1.087       .  S
C580        H582   1.084       .  S
C583        C584   1.342       .  D
C583        H585   1.085       .  S
C584        H586   1.087       .  S
C587        C588   1.342       .  D
C587        H589   1.085       .  S
C588        H590   1.087       .  S
C591        C592   1.347       .  D
C591        H593   1.085       .  S
C592        H594   1.086       .  S
C595        C596   1.348       .  D
C595        H597   1.087       .  S
C596        H598   1.084       .  S
C599        C600   1.349       .  D
C599        H601   1.084       .  S
C600        H602   1.087       .  S
C603        C604   1.346       .  D
C603        H605   1.084       .  S
C604        H606   1.087       .  S
C607        C608   1.198       .  T
C608        C609   1.399       .  S
C609        C610   1.198       .  T
C611        C612   1.200       .  T
C612        C613   1.403       .  S
C613        C614   1.200       .  T
C615        C616   1.344       .  D
C615        H617   1.087       .  S
C616        H618   1.085       .  S
C619        C620   1.344       .  D
C619        H621   1.085       .  S
C620        H622   1.086       .  S
C623        C624   1.346       .  D
C623        H625   1.084       .  S
C624        H626   1.087       .  S
C627        C628   1.346       .  D
C627        H629   1.084       .  S
C628        H630   1.087       .  S
C631        C632   1.345       .  D
C631        H633   1.084       .  S
C632        H634   1.087       .  S
C635        C636   1.199       .  T
C636        C637   1.401       .  S
C637        C638   1.199       .  T
C639        C640   1.207       .  T
C640        C641   1.414       .  S
C641        C642   1.207       .  T
C643        C644   1.348       .  D
C643        H645   1.085       .  S
C644        H646   1.087       .  S
C647        C648   1.344       .  D
C647        H649   1.087       .  S
C648        H650   1.084       .  S
C651        C652   1.348       .  D
C651        H653   1.087       .  S
C652        H654   1.084       .  S
