geometry optimzed in LAMMPS
_audit_creation_date              2020-12-01 
_audit_creation_method            'lammps2cif' 
_symmetry_space_group_name_H-M    'P1' 
_symmetry_Int_Tables_number       1 
_symmetry_cell_setting            triclinic 
loop_ 
_symmetry_equiv_pos_as_xyz 
  x,y,z 
_cell_length_a                    35.80334344 
_cell_length_b                    35.789095770007506 
_cell_length_c                    22.051422864933606 
_cell_angle_alpha                 89.99894813854108 
_cell_angle_beta                  90.00060209951386 
_cell_angle_gamma                 89.99996290648917 
loop_ 
_atom_site_label 
_atom_site_type_symbol 
_atom_site_fract_x 
_atom_site_fract_y 
_atom_site_fract_z 
_atom_site_charge 
C1          C  0.39605988  0.30809914  0.29862637     0.78600
N2          N  0.40789193  0.34223574  0.28338334    -0.79700
C3          C  0.44203369  0.35404185  0.29857938     0.81000
N4          N  0.46597656  0.33074976  0.32806729    -0.79700
C5          C  0.45499596  0.29509037  0.34101225     0.81100
N6          N  0.41933192  0.28413400  0.32811993    -0.81400
C7          C  0.32039385  0.38318142  0.00242892     0.78600
N8          N  0.35580472  0.39436910  0.01299548    -0.79700
C9          C  0.36701327  0.42978137  0.00238285     0.81000
N10         N  0.34143309  0.45536725  0.98209573    -0.79700
C11         C  0.30522099  0.44499468  0.97097141     0.81100
N12         N  0.29483062  0.40878251  0.98214637    -0.81400
C13         C  0.18787422  0.38313670  0.37713808     0.78600
N14         N  0.15240236  0.39414304  0.36660353    -0.79700
C15         C  0.14100865  0.42947608  0.37739467     0.81000
N16         N  0.16645006  0.45515432  0.39777963    -0.79700
C17         C  0.20272425  0.44496844  0.40875574     0.81100
N18         N  0.21330869  0.40883933  0.39746296    -0.81400
C19         C  0.44170159  0.13735544  0.08048873     0.78600
N20         N  0.46582872  0.16069864  0.05148102    -0.79700
C21         C  0.45497542  0.19641676  0.03865071     0.81000
N22         N  0.41928045  0.20741507  0.05129478    -0.79700
C23         C  0.39582260  0.18340883  0.08033395     0.81100
N24         N  0.40750896  0.14918032  0.09537465    -0.81400
N25         N  0.44230765  0.44766413  0.25436154    -0.07700
N26         N  0.42971473  0.41346787  0.24696092    -0.59900
N27         N  0.45266903  0.03013653  0.31383788    -0.07400
N28         N  0.43436336  0.04097057  0.36340738    -0.62000
N29         N  0.43051441  0.03213338  0.26666422    -0.07000
N30         N  0.39738750  0.04462752  0.28243186    -0.59800
N31         N  0.46794544  0.44786263  0.29767765    -0.06700
N32         N  0.47343339  0.41411050  0.31987502    -0.62300
C33         C  0.44943503  0.39314367  0.28768442     0.94400
C34         C  0.39985850  0.04995220  0.34240765     0.94200
N35         N  0.06587172  0.04377305  0.25514864    -0.07900
N36         N  0.07895850  0.07786045  0.24861037    -0.60400
N37         N  0.05527724  0.46131643  0.31408320    -0.06100
N38         N  0.07360858  0.45060322  0.36370622    -0.61700
N39         N  0.07740365  0.45919035  0.26689520    -0.08000
N40         N  0.11051388  0.44667010  0.28268714    -0.60700
N41         N  0.04010924  0.04357217  0.29825682    -0.05700
N42         N  0.03499804  0.07720656  0.32116119    -0.61800
Mn43       Mn  0.00397478  0.49573388  0.30858818     1.18400
C44         C  0.05939706  0.09811752  0.28965473     0.96500
C45         C  0.10807849  0.44148672  0.34269804     0.97200
N46         N  0.44225404  0.04381918  0.12537744    -0.08000
N47         N  0.42943142  0.07796656  0.13239286    -0.64300
N48         N  0.45277647  0.46143435  0.06596568    -0.06800
N49         N  0.43443822  0.45085318  0.01626834    -0.65000
N50         N  0.43060757  0.45932052  0.11310565    -0.07500
N51         N  0.39745860  0.44695098  0.09719359    -0.64600
N52         N  0.46799241  0.04363651  0.08222815    -0.06400
N53         N  0.47334282  0.07734057  0.05976905    -0.65200
Mn54       Mn  0.43562045  0.49573526  0.18989673     1.10700
C55         C  0.44913336  0.09827055  0.09159914     0.97700
C56         C  0.39990371  0.44186742  0.03715877     0.97800
N57         N  0.06585498  0.44776661  0.12556878    -0.07500
N58         N  0.07871782  0.41363190  0.13253013    -0.62900
N59         N  0.05535968  0.03028957  0.06655954    -0.06800
N60         N  0.07366445  0.04124432  0.01706490    -0.59600
N61         N  0.07746009  0.03232922  0.11379288    -0.08100
N62         N  0.11054240  0.04498883  0.09815469    -0.62400
N63         N  0.04019485  0.44796207  0.08228924    -0.07100
N64         N  0.03495294  0.41426786  0.05968264    -0.59600
Mn65       Mn  0.07244012  0.99576647  0.19033090     1.20200
Mn66       Mn  0.00409622  0.49581933  0.07163460     1.10100
Cl67       Cl  0.00403288  0.49577582  0.19011211    -0.87600
C68         C  0.05914305  0.39333530  0.09157540     0.94700
C69         C  0.10809269  0.05038748  0.03819825     0.94500
C70         C  0.11281339  0.30840237  0.08054579     0.78600
N71         N  0.10097645  0.34260031  0.09544230    -0.79700
C72         C  0.06676056  0.35428101  0.08038979     0.81000
N73         N  0.04277662  0.33081284  0.05133706    -0.79700
C74         C  0.05378154  0.29511185  0.03867969     0.81100
N75         N  0.08949089  0.28426211  0.05151089    -0.81400
C76         C  0.36703440  0.06223818  0.37709282     0.78600
N77         N  0.35602980  0.09772359  0.36655692    -0.79700
C78         C  0.32071230  0.10912152  0.37736260     0.81000
N79         N  0.29504768  0.08367174  0.39775625    -0.79700
C80         C  0.30522873  0.04738438  0.40873088     0.81100
N81         N  0.34134355  0.03679357  0.39743077    -0.81400
C82         C  0.06705806  0.13714635  0.30112781     0.78600
N83         N  0.04290432  0.16065314  0.32975141    -0.79700
C84         C  0.05379842  0.19639893  0.34235907     0.81000
N85         N  0.08953940  0.20728894  0.32977805    -0.79700
C86         C  0.11303481  0.18312154  0.30114703     0.81100
N87         N  0.10132718  0.14884629  0.28639522    -0.81400
C88         C  0.18755771  0.10918480  0.00362053     0.78600
N89         N  0.21309854  0.08361916  0.98324425    -0.79700
C90         C  0.20271634  0.04741620  0.97214627     0.81000
N91         N  0.16652442  0.03702998  0.98322857    -0.79700
C92         C  0.14096774  0.06258107  0.00360772     0.81100
N93         N  0.15216571  0.09798500  0.01432900    -0.81400
N94         N  0.29095148  0.17274066  0.26689849    -0.07700
N95         N  0.30349451  0.13962495  0.28267222    -0.59900
N96         N  0.20659227  0.21003474  0.29829347    -0.07400
N97         N  0.17297159  0.21516040  0.32119521    -0.62000
N98         N  0.20638488  0.18426949  0.25517407    -0.05800
N99         N  0.17230293  0.17119531  0.24862805    -0.59800
N100        N  0.28882608  0.19487064  0.31409190    -0.06700
N101        N  0.29956303  0.17653688  0.36370248    -0.62300
C102        C  0.30869618  0.14206291  0.34267799     0.94400
C103        C  0.15205771  0.19076755  0.28967888     0.94200
N104        N  0.21800842  0.31966122  0.26670745    -0.07900
N105        N  0.20549546  0.35279134  0.28247652    -0.60400
N106        N  0.30225502  0.28223071  0.29773680    -0.06100
N107        N  0.33599165  0.27672737  0.31993483    -0.61700
N108        N  0.30245980  0.30788128  0.25442377    -0.08000
N109        N  0.33664911  0.32046743  0.24702896    -0.60700
N110        N  0.22000742  0.29749408  0.31387569    -0.05700
N111        N  0.20915645  0.31579333  0.36344466    -0.61800
Mn112      Mn  0.25440873  0.24618204  0.30862184     1.18400
C113        C  0.20015954  0.35030700  0.34244764     0.96500
C114        C  0.35695986  0.30072996  0.28775312     0.97200
N115        N  0.21783006  0.17269063  0.11381288    -0.08000
N116        N  0.20515890  0.13960244  0.09817188    -0.64300
N117        N  0.30216868  0.20997150  0.08229649    -0.06800
N118        N  0.33584464  0.21521993  0.05967061    -0.65000
N119        N  0.30237221  0.18429771  0.12557022    -0.07500
N120        N  0.33649764  0.17143113  0.13250636    -0.64600
N121        N  0.21986892  0.19480406  0.06658566    -0.06400
N122        N  0.20890117  0.17650443  0.01709081    -0.65200
Mn123      Mn  0.25438299  0.17770285  0.19034485     1.10700
C124        C  0.19974956  0.14206520  0.03821975     0.97700
C125        C  0.35677867  0.19101875  0.09154206     0.97800
N126        N  0.29080217  0.31959704  0.11315636    -0.07500
N127        N  0.30318386  0.35275342  0.09724528    -0.62900
N128        N  0.20652401  0.28218481  0.08225801    -0.06800
N129        N  0.17283463  0.27680351  0.05981010    -0.59600
N130        N  0.20632581  0.30792568  0.12541919    -0.08100
N131        N  0.17217838  0.32071810  0.13245157    -0.62400
N132        N  0.28870296  0.29741359  0.06602260    -0.07100
N133        N  0.29931024  0.31574543  0.01633121    -0.59600
Mn134      Mn  0.25439864  0.31457366  0.18994577     1.20200
Mn135      Mn  0.25432876  0.24608014  0.07166811     1.10100
Cl136      Cl  0.25437010  0.24613536  0.19014484    -0.87600
C137        C  0.30829516  0.35029258  0.03721765     0.94700
C138        C  0.15189247  0.30099501  0.09165695     0.94500
C139        C  0.22921933  0.47241993  0.50407841     0.00700
C140        C  0.22915070  0.47166215  0.44007380     0.00600
C141        C  0.25402055  0.49613263  0.40826383    -0.19900
C142        C  0.27854041  0.02095956  0.44006220     0.00700
C143        C  0.27779867  0.02088936  0.50406706     0.00600
C144        C  0.25331047  0.49685659  0.53530036    -0.19900
H145        H  0.25309663  0.49707545  0.58450384     0.02700
H146        H  0.25427735  0.49587090  0.35915411     0.02700
C147        C  0.47941058  0.22140174  0.94008540     0.00700
C148        C  0.48014743  0.22147596  0.00409019     0.00600
C149        C  0.50463338  0.24551001  0.03532496    -0.19900
C150        C  0.02872679  0.26994469  0.00410318     0.00700
C151        C  0.02879942  0.27069982  0.94009859     0.00600
C152        C  0.50393218  0.24622747  0.90828745    -0.19900
H153        H  0.50367839  0.24648717  0.85917660     0.02700
H154        H  0.50484447  0.24529286  0.08452827     0.02700
C155        C  0.47998167  0.27010020  0.37595262     0.00700
C156        C  0.47937914  0.27070778  0.43996475     0.00600
C157        C  0.00399679  0.24613588  0.47207161    -0.19900
C158        C  0.02876889  0.22141049  0.44056485     0.00700
C159        C  0.02856002  0.22163188  0.37656127     0.00600
C160        C  0.00435313  0.24578538  0.34502710    -0.19900
H161        H  0.00447974  0.24566211  0.29582339     0.02700
H162        H  0.00388122  0.24625119  0.52118516     0.02700
C163        C  0.27857082  0.47165256  0.93994063     0.00700
C164        C  0.27796855  0.47226158  0.87592865     0.00600
C165        C  0.25359710  0.49657687  0.84500278    -0.19900
C166        C  0.22939043  0.02072925  0.87653703     0.00700
C167        C  0.22918195  0.02095033  0.94054050     0.00600
C168        C  0.25395387  0.49622396  0.97204784    -0.19900
H169        H  0.25406990  0.49610751  0.02116176     0.02700
H170        H  0.25347013  0.49670126  0.79579747     0.02700
C171        C  0.31592775  0.38830971  0.79860605     0.78600
N172        N  0.35006795  0.40011705  0.78340440    -0.79700
C173        C  0.36189430  0.43425939  0.79862373     0.81000
N174        N  0.33861792  0.45822853  0.82809758    -0.79700
C175        C  0.30295477  0.44727071  0.84099230     0.81100
N176        N  0.29198053  0.41160593  0.82807396    -0.81400
C177        C  0.39091178  0.18010682  0.87716243     0.78600
N178        N  0.40192205  0.14462446  0.86661799    -0.79700
C179        C  0.43724540  0.13323482  0.87739683     0.81000
N180        N  0.46290999  0.15869001  0.89777261    -0.79700
C181        C  0.45272333  0.19497438  0.90875694     0.81100
N182        N  0.41660232  0.20555656  0.89748423    -0.81400
C183        C  0.14491146  0.05924359  0.80114069     0.78600
N184        N  0.15661275  0.09352510  0.78641273    -0.79700
C185        C  0.19088041  0.10522600  0.80115247     0.81000
N186        N  0.21503883  0.08171462  0.82975729    -0.79700
C187        C  0.20415141  0.04596330  0.84233788     0.81100
N188        N  0.16841158  0.03507164  0.82975313    -0.81400
C189        C  0.07007535  0.35922942  0.87717713     0.78600
N190        N  0.10555115  0.34822876  0.86666592    -0.79700
C191        C  0.11694754  0.31289705  0.87746270     0.81000
N192        N  0.09150513  0.28721461  0.89783171    -0.79700
C193        C  0.05522677  0.29739487  0.90878460     0.81100
N194        N  0.04463990  0.33352269  0.89748541    -0.81400
C195        C  0.11697774  0.17979318  0.50367790     0.78600
N196        N  0.10578458  0.14438661  0.51439140    -0.79700
C197        C  0.07039760  0.13317958  0.50365616     0.81000
N198        N  0.04485696  0.15874068  0.48326242    -0.79700
C199        C  0.05523453  0.19494620  0.47217431     0.81100
N200        N  0.09142106  0.20533983  0.48328287    -0.81400
C201        C  0.31623323  0.10499672  0.58052010     0.78600
N202        N  0.35042740  0.09317214  0.59539980    -0.79700
C203        C  0.36211975  0.05895033  0.58033345     0.81000
N204        N  0.33866625  0.03494973  0.55127307    -0.79700
C205        C  0.30297016  0.04594692  0.53863222     0.81100
N206        N  0.29211036  0.08165901  0.55149121    -0.81400
N207        N  0.31565543  0.29467863  0.75443852    -0.07700
N208        N  0.32825054  0.32887325  0.74702430    -0.59900
N209        N  0.30527321  0.21221211  0.81392070    -0.07400
N210        N  0.32358236  0.20138117  0.86349026    -0.62000
N211        N  0.32742220  0.21020375  0.76674224    -0.07000
N212        N  0.36054722  0.19770253  0.78250599    -0.59800
N213        N  0.29001778  0.29448804  0.79775463    -0.06700
N214        N  0.28453205  0.32824356  0.81993717    -0.62300
C215        C  0.30853177  0.34920423  0.78773877     0.94400
C216        C  0.35808218  0.19238686  0.84248408     0.94200
N217        N  0.19206409  0.19860957  0.75522598    -0.07900
N218        N  0.17897501  0.16452426  0.74867332    -0.60400
N219        N  0.20268104  0.28105734  0.81416286    -0.06100
N220        N  0.18434738  0.29176483  0.86378587    -0.61700
N221        N  0.18055842  0.28319548  0.76697031    -0.08000
N222        N  0.14744998  0.29572002  0.78275915    -0.60700
N223        N  0.21782732  0.19880080  0.79833433    -0.05700
N224        N  0.22293683  0.16516188  0.82122370    -0.61800
Mn225      Mn  0.25397544  0.24662760  0.80866888     1.18400
C226        C  0.19853569  0.14425876  0.78970879     0.96500
C227        C  0.14988118  0.30089217  0.84277234     0.97200
N228        N  0.31568075  0.19852355  0.62545731    -0.08000
N229        N  0.32850046  0.16437379  0.63246051    -0.64300
N230        N  0.30518067  0.28091622  0.56604557    -0.06800
N231        N  0.32351656  0.29150020  0.51634758    -0.65000
N232        N  0.32735431  0.28301822  0.61318138    -0.07500
N233        N  0.36050563  0.29538049  0.59726563    -0.64600
N234        N  0.28994252  0.19871561  0.58230765    -0.06400
N235        N  0.28458922  0.16501575  0.55983515    -0.65200
Mn236      Mn  0.32232861  0.24660467  0.68997559     1.10700
C237        C  0.30879661  0.14407796  0.59165843     0.97700
C238        C  0.35805582  0.30047293  0.53723236     0.97800
N239        N  0.19210717  0.29461599  0.62564340    -0.07500
N240        N  0.17924601  0.32875217  0.63258954    -0.62900
N241        N  0.20258136  0.21208624  0.56664220    -0.06800
N242        N  0.18428017  0.20112523  0.51714817    -0.59600
N243        N  0.18047629  0.21005839  0.61387014    -0.08100
N244        N  0.14739260  0.19740282  0.59822872    -0.62400
N245        N  0.21776680  0.29441249  0.58236454    -0.07100
N246        N  0.22300993  0.32810313  0.55974203    -0.59600
Mn247      Mn  0.18550901  0.24661899  0.69040798     1.20200
Mn248      Mn  0.25385243  0.24654420  0.57171519     1.10100
Cl249      Cl  0.25391632  0.24658701  0.69019188    -0.87600
C250        C  0.19882129  0.34904186  0.59162562     0.94700
C251        C  0.14984801  0.19199266  0.53827550     0.94500
C252        C  0.39094204  0.31256485  0.50245038     0.78600
N253        N  0.41652161  0.28698385  0.48214744    -0.79700
C254        C  0.45272880  0.29736349  0.47099873     0.81000
N255        N  0.46311546  0.33357748  0.48216714    -0.79700
C256        C  0.43755288  0.35917351  0.50246690     0.81100
N257        N  0.40214678  0.34797883  0.51305691    -0.81400
C258        C  0.14513723  0.43396380  0.58053889     0.78600
N259        N  0.15698032  0.39977133  0.59545768    -0.79700
C260        C  0.19119757  0.38809227  0.58041128     0.81000
N261        N  0.21517659  0.41155709  0.55134019    -0.79700
C262        C  0.20416514  0.44725304  0.53865750     0.81100
N263        N  0.16845492  0.45810100  0.55148599    -0.81400
N264        N  0.46699166  0.06961858  0.76692073    -0.07700
N265        N  0.45445287  0.10273476  0.78269901    -0.59900
N266        N  0.05135502  0.03232973  0.79830925    -0.07400
N267        N  0.08497828  0.02720300  0.82120117    -0.62000
N268        N  0.05155779  0.05809595  0.75518980    -0.07000
N269        N  0.08563903  0.07116992  0.74863424    -0.59800
N270        N  0.46912150  0.04748725  0.81411369    -0.06700
N271        N  0.45839146  0.06582026  0.86372727    -0.62300
C272        C  0.44925865  0.10029555  0.84270657     0.94400
C273        C  0.10588869  0.05159612  0.78967866     0.94200
N274        N  0.03994986  0.42270318  0.76673254    -0.07900
N275        N  0.05246194  0.38957319  0.78250735    -0.60400
N276        N  0.45569910  0.46012635  0.79775567    -0.06100
N277        N  0.42196049  0.46563120  0.81994312    -0.61700
N278        N  0.45549737  0.43447548  0.75444434    -0.08000
N279        N  0.42130833  0.42189075  0.74704068    -0.60700
N280        N  0.03794731  0.44487036  0.81389901    -0.05700
N281        N  0.04879490  0.42657167  0.86347171    -0.61800
Mn282      Mn  0.00354210  0.99617878  0.80864160     1.18400
C283        C  0.05779332  0.39205811  0.84247962     0.96500
C284        C  0.40099436  0.44162960  0.78775667     0.97200
N285        N  0.04011040  0.06967205  0.61383493    -0.08000
N286        N  0.05278700  0.10275901  0.59819926    -0.64300
N287        N  0.45577419  0.03238650  0.58231447    -0.06800
N288        N  0.42209982  0.02713979  0.55968027    -0.65000
N289        N  0.45556820  0.05805957  0.62558796    -0.07500
N290        N  0.42144267  0.07092708  0.63251581    -0.64600
N291        N  0.03807389  0.04756011  0.56660695    -0.06400
N292        N  0.04904841  0.06586015  0.51711572    -0.65200
Mn293      Mn  0.00355750  0.06465826  0.69036410     1.10700
C294        C  0.05820262  0.10029749  0.53824903     0.97700
C295        C  0.40116405  0.05134132  0.59154599     0.97800
N296        N  0.46715351  0.42276043  0.61318163    -0.07500
N297        N  0.45477164  0.38960352  0.59727585    -0.62900
N298        N  0.05142583  0.46018074  0.58227496    -0.06800
N299        N  0.08511233  0.46556134  0.55981560    -0.59600
N300        N  0.05162914  0.43444030  0.62543804    -0.08100
N301        N  0.08577741  0.42164734  0.63246070    -0.62400
N302        N  0.46924721  0.44494405  0.56604632    -0.07100
N303        N  0.45863603  0.42661138  0.51635828    -0.59600
Mn304      Mn  0.50355896  0.42778748  0.68996880     1.20200
Mn305      Mn  0.00361725  0.99628141  0.57168789     1.10100
Cl306      Cl  0.00357851  0.99622578  0.69016537    -0.87600
C307        C  0.44965437  0.39206375  0.53724922     0.94700
C308        C  0.10605828  0.44136951  0.59165732     0.94500
C309        C  0.39605990  0.80809906  0.29862634     0.78600
N310        N  0.40789192  0.84223568  0.28338327    -0.79700
C311        C  0.44203363  0.85404184  0.29857937     0.81000
N312        N  0.46597653  0.83074980  0.32806730    -0.79700
C313        C  0.45499598  0.79509039  0.34101227     0.81100
N314        N  0.41933196  0.78413398  0.32811999    -0.81400
C315        C  0.32039393  0.88318143  0.00242892     0.78600
N316        N  0.35580478  0.89436911  0.01299555    -0.79700
C317        C  0.36701330  0.92978139  0.00238283     0.81000
N318        N  0.34143315  0.95536726  0.98209573    -0.79700
C319        C  0.30522104  0.94499470  0.97097142     0.81100
N320        N  0.29483072  0.90878249  0.98214629    -0.81400
C321        C  0.18787417  0.88313669  0.37713804     0.78600
N322        N  0.15240230  0.89414306  0.36660348    -0.79700
C323        C  0.14100862  0.92947610  0.37739467     0.81000
N324        N  0.16645005  0.95515432  0.39777962    -0.79700
C325        C  0.20272423  0.94496840  0.40875578     0.81100
N326        N  0.21330864  0.90883927  0.39746302    -0.81400
C327        C  0.44170158  0.63735542  0.08048867     0.78600
N328        N  0.46582868  0.66069859  0.05148098    -0.79700
C329        C  0.45497539  0.69641675  0.03865069     0.81000
N330        N  0.41928042  0.70741501  0.05129474    -0.79700
C331        C  0.39582257  0.68340881  0.08033395     0.81100
N332        N  0.40750894  0.64918028  0.09537470    -0.81400
N333        N  0.44230761  0.94766413  0.25436154    -0.07700
N334        N  0.42971467  0.91346786  0.24696095    -0.59900
N335        N  0.45266898  0.53013647  0.31383792    -0.07400
N336        N  0.43436331  0.54097046  0.36340740    -0.62000
N337        N  0.43051440  0.53213337  0.26666424    -0.07000
N338        N  0.39738747  0.54462754  0.28243187    -0.59800
N339        N  0.46794543  0.94786258  0.29767767    -0.06700
N340        N  0.47343334  0.91411051  0.31987500    -0.62300
C341        C  0.44943494  0.89314366  0.28768443     0.94400
C342        C  0.39985846  0.54995220  0.34240764     0.94200
N343        N  0.06587171  0.54377307  0.25514866    -0.07900
N344        N  0.07895846  0.57786052  0.24861030    -0.60400
N345        N  0.05527721  0.96131649  0.31408317    -0.06100
N346        N  0.07360854  0.95060328  0.36370621    -0.61700
N347        N  0.07740364  0.95919041  0.26689519    -0.08000
N348        N  0.11051385  0.94667015  0.28268716    -0.60700
N349        N  0.04010931  0.54357218  0.29825686    -0.05700
N350        N  0.03499804  0.57720659  0.32116122    -0.61800
Mn351      Mn  0.00397472  0.99573391  0.30858816     1.18400
C352        C  0.05939701  0.59811756  0.28965469     0.96500
C353        C  0.10807845  0.94148678  0.34269805     0.97200
N354        N  0.44225416  0.54381922  0.12537755    -0.08000
N355        N  0.42943146  0.57796659  0.13239278    -0.64300
N356        N  0.45277650  0.96143424  0.06596569    -0.06800
N357        N  0.43443822  0.95085315  0.01626837    -0.65000
N358        N  0.43060757  0.95932037  0.11310569    -0.07500
N359        N  0.39745859  0.94695092  0.09719357    -0.64600
N360        N  0.46799255  0.54363657  0.08222823    -0.06400
N361        N  0.47334294  0.57734057  0.05976909    -0.65200
Mn362      Mn  0.43562042  0.99573517  0.18989673     1.10700
C363        C  0.44913337  0.59827055  0.09159908     0.97700
C364        C  0.39990370  0.94186739  0.03715877     0.97800
N365        N  0.06585502  0.94776669  0.12556872    -0.07500
N366        N  0.07871781  0.91363192  0.13253016    -0.62900
N367        N  0.05535973  0.53028944  0.06655950    -0.06800
N368        N  0.07366453  0.54124422  0.01706486    -0.59600
N369        N  0.07746008  0.53232912  0.11379285    -0.08100
N370        N  0.11054240  0.54498876  0.09815479    -0.62400
N371        N  0.04019493  0.94796217  0.08228923    -0.07100
N372        N  0.03495295  0.91426793  0.05968262    -0.59600
Mn373      Mn  0.07244003  0.49576643  0.19033090     1.20200
Mn374      Mn  0.00409623  0.99581937  0.07163462     1.10100
Cl375      Cl  0.00403289  0.99577587  0.19011212    -0.87600
C376        C  0.05914304  0.89333536  0.09157547     0.94700
C377        C  0.10809274  0.55038734  0.03819831     0.94500
C378        C  0.11281341  0.80840244  0.08054578     0.78600
N379        N  0.10097650  0.84260036  0.09544237    -0.79700
C380        C  0.06676056  0.85428106  0.08038977     0.81000
N381        N  0.04277670  0.83081288  0.05133702    -0.79700
C382        C  0.05378158  0.79511190  0.03867964     0.81100
N383        N  0.08949099  0.78426217  0.05151087    -0.81400
C384        C  0.36703440  0.56223821  0.37709281     0.78600
N385        N  0.35602979  0.59772363  0.36655693    -0.79700
C386        C  0.32071232  0.60912158  0.37736262     0.81000
N387        N  0.29504768  0.58367179  0.39775629    -0.79700
C388        C  0.30522872  0.54738444  0.40873087     0.81100
N389        N  0.34134352  0.53679361  0.39743077    -0.81400
C390        C  0.06705800  0.63714638  0.30112778     0.78600
N391        N  0.04290427  0.66065319  0.32975141    -0.79700
C392        C  0.05379839  0.69639896  0.34235903     0.81000
N393        N  0.08953938  0.70728895  0.32977804    -0.79700
C394        C  0.11303479  0.68312150  0.30114706     0.81100
N395        N  0.10132712  0.64884630  0.28639522    -0.81400
C396        C  0.18755767  0.60918475  0.00362057     0.78600
N397        N  0.21309851  0.58361914  0.98324423    -0.79700
C398        C  0.20271633  0.54741615  0.97214625     0.81000
N399        N  0.16652443  0.53702991  0.98322854    -0.79700
C400        C  0.14096776  0.56258095  0.00360776     0.81100
N401        N  0.15216569  0.59798491  0.01432907    -0.81400
N402        N  0.29095150  0.67274057  0.26689846    -0.07700
N403        N  0.30349446  0.63962494  0.28267223    -0.59900
N404        N  0.20659225  0.71003479  0.29829344    -0.07400
N405        N  0.17297158  0.71516040  0.32119520    -0.62000
N406        N  0.20638489  0.68426954  0.25517403    -0.05800
N407        N  0.17230294  0.67119531  0.24862805    -0.59800
N408        N  0.28882610  0.69487064  0.31409195    -0.06700
N409        N  0.29956302  0.67653688  0.36370244    -0.62300
C410        C  0.30869617  0.64206288  0.34267804     0.94400
C411        C  0.15205771  0.69076750  0.28967895     0.94200
N412        N  0.21800843  0.81966112  0.26670744    -0.07900
N413        N  0.20549540  0.85279131  0.28247646    -0.60400
N414        N  0.30225508  0.78223069  0.29773681    -0.06100
N415        N  0.33599170  0.77672739  0.31993493    -0.61700
N416        N  0.30245991  0.80788122  0.25442370    -0.08000
N417        N  0.33664916  0.82046740  0.24702895    -0.60700
N418        N  0.22000750  0.79749411  0.31387571    -0.05700
N419        N  0.20915660  0.81579338  0.36344471    -0.61800
Mn420      Mn  0.25440881  0.74618206  0.30862184     1.18400
C421        C  0.20015953  0.85030698  0.34244757     0.96500
C422        C  0.35695992  0.80072995  0.28775315     0.97200
N423        N  0.21783006  0.67269066  0.11381287    -0.08000
N424        N  0.20515886  0.63960248  0.09817190    -0.64300
N425        N  0.30216865  0.70997146  0.08229644    -0.06800
N426        N  0.33584458  0.71521986  0.05967050    -0.65000
N427        N  0.30237221  0.68429772  0.12557028    -0.07500
N428        N  0.33649763  0.67143117  0.13250643    -0.64600
N429        N  0.21986887  0.69480408  0.06658565    -0.06400
N430        N  0.20890110  0.67650443  0.01709081    -0.65200
Mn431      Mn  0.25438304  0.67770288  0.19034486     1.10700
C432        C  0.19974949  0.64206522  0.03821978     0.97700
C433        C  0.35677865  0.69101873  0.09154206     0.97800
N434        N  0.29080223  0.81959701  0.11315633    -0.07500
N435        N  0.30318383  0.85275340  0.09724529    -0.62900
N436        N  0.20652410  0.78218486  0.08225805    -0.06800
N437        N  0.17283464  0.77680357  0.05981008    -0.59600
N438        N  0.20632588  0.80792568  0.12541916    -0.08100
N439        N  0.17217845  0.82071816  0.13245159    -0.62400
N440        N  0.28870308  0.79741352  0.06602254    -0.07100
N441        N  0.29931042  0.81574540  0.01633123    -0.59600
Mn442      Mn  0.25439872  0.81457355  0.18994576     1.20200
Mn443      Mn  0.25432876  0.74608009  0.07166808     1.10100
Cl444      Cl  0.25437009  0.74613536  0.19014483    -0.87600
C445        C  0.30829522  0.85029258  0.03721766     0.94700
C446        C  0.15189257  0.80099508  0.09165694     0.94500
C447        C  0.22921932  0.97241989  0.50407841     0.00700
C448        C  0.22915069  0.97166212  0.44007381     0.00600
C449        C  0.25402050  0.99613264  0.40826383    -0.19900
C450        C  0.27854038  0.52095962  0.44006220     0.00700
C451        C  0.27779867  0.52088940  0.50406708     0.00600
C452        C  0.25331045  0.99685658  0.53530035    -0.19900
H453        H  0.25309657  0.99707546  0.58450380     0.02700
H454        H  0.25427726  0.99587096  0.35915413     0.02700
C455        C  0.47941054  0.72140175  0.94008543     0.00700
C456        C  0.48014738  0.72147597  0.00409022     0.00600
C457        C  0.50463332  0.74551006  0.03532497    -0.19900
C458        C  0.02872682  0.76994473  0.00410317     0.00700
C459        C  0.02879948  0.77069975  0.94009857     0.00600
C460        C  0.50393219  0.74622740  0.90828746    -0.19900
H461        H  0.50367844  0.74648702  0.85917659     0.02700
H462        H  0.50484442  0.74529291  0.08452828     0.02700
C463        C  0.47998177  0.77010027  0.37595261     0.00700
C464        C  0.47937914  0.77070776  0.43996474     0.00600
C465        C  0.00399677  0.74613588  0.47207161    -0.19900
C466        C  0.02876883  0.72141047  0.44056484     0.00700
C467        C  0.02855998  0.72163191  0.37656126     0.00600
C468        C  0.00435312  0.74578541  0.34502710    -0.19900
H469        H  0.00447974  0.74566217  0.29582341     0.02700
H470        H  0.00388123  0.74625119  0.52118513     0.02700
C471        C  0.27857085  0.97165255  0.93994069     0.00700
C472        C  0.27796859  0.97226160  0.87592871     0.00600
C473        C  0.25359715  0.99657686  0.84500278    -0.19900
C474        C  0.22939043  0.52072925  0.87653707     0.00700
C475        C  0.22918191  0.52095029  0.94054053     0.00600
C476        C  0.25395386  0.99622399  0.97204784    -0.19900
H477        H  0.25406982  0.99610753  0.02116177     0.02700
H478        H  0.25347023  0.99670123  0.79579744     0.02700
C479        C  0.31592773  0.88830977  0.79860604     0.78600
N480        N  0.35006791  0.90011710  0.78340439    -0.79700
C481        C  0.36189429  0.93425943  0.79862370     0.81000
N482        N  0.33861791  0.95822858  0.82809760    -0.79700
C483        C  0.30295481  0.94727074  0.84099237     0.81100
N484        N  0.29198051  0.91160598  0.82807398    -0.81400
C485        C  0.39091178  0.68010680  0.87716241     0.78600
N486        N  0.40192213  0.64462445  0.86661794    -0.79700
C487        C  0.43724544  0.63323482  0.87739681     0.81000
N488        N  0.46291007  0.65869002  0.89777258    -0.79700
C489        C  0.45272333  0.69497437  0.90875695     0.81100
N490        N  0.41660232  0.70555651  0.89748431    -0.81400
C491        C  0.14491150  0.55924355  0.80114069     0.78600
N492        N  0.15661279  0.59352508  0.78641278    -0.79700
C493        C  0.19088043  0.60522594  0.80115244     0.81000
N494        N  0.21503890  0.58171464  0.82975723    -0.79700
C495        C  0.20415144  0.54596329  0.84233789     0.81100
N496        N  0.16841167  0.53507163  0.82975310    -0.81400
C497        C  0.07007531  0.85922934  0.87717712     0.78600
N498        N  0.10555112  0.84822874  0.86666594    -0.79700
C499        C  0.11694756  0.81289702  0.87746270     0.81000
N500        N  0.09150516  0.78721456  0.89783165    -0.79700
C501        C  0.05522680  0.79739477  0.90878455     0.81100
N502        N  0.04463989  0.83352261  0.89748541    -0.81400
C503        C  0.11697771  0.67979320  0.50367789     0.78600
N504        N  0.10578456  0.64438660  0.51439135    -0.79700
C505        C  0.07039757  0.63317961  0.50365615     0.81000
N506        N  0.04485693  0.65874068  0.48326246    -0.79700
C507        C  0.05523448  0.69494621  0.47217431     0.81100
N508        N  0.09142102  0.70533983  0.48328289    -0.81400
C509        C  0.31623322  0.60499674  0.58052005     0.78600
N510        N  0.35042743  0.59317216  0.59539984    -0.79700
C511        C  0.36211974  0.55895032  0.58033342     0.81000
N512        N  0.33866625  0.53494974  0.55127311    -0.79700
C513        C  0.30297015  0.54594692  0.53863224     0.81100
N514        N  0.29211042  0.58165907  0.55149118    -0.81400
N515        N  0.31565542  0.79467867  0.75443854    -0.07700
N516        N  0.32825051  0.82887329  0.74702428    -0.59900
N517        N  0.30527319  0.71221216  0.81392070    -0.07400
N518        N  0.32358233  0.70138122  0.86349026    -0.62000
N519        N  0.32742219  0.71020381  0.76674226    -0.07000
N520        N  0.36054719  0.69770257  0.78250602    -0.59800
N521        N  0.29001778  0.79448802  0.79775459    -0.06700
N522        N  0.28453201  0.82824359  0.81993717    -0.62300
C523        C  0.30853170  0.84920425  0.78773878     0.94400
C524        C  0.35808216  0.69238687  0.84248409     0.94200
N525        N  0.19206417  0.69860952  0.75522598    -0.07900
N526        N  0.17897500  0.66452423  0.74867330    -0.60400
N527        N  0.20268109  0.78105742  0.81416283    -0.06100
N528        N  0.18434742  0.79176488  0.86378590    -0.61700
N529        N  0.18055852  0.78319555  0.76697032    -0.08000
N530        N  0.14745003  0.79572007  0.78275914    -0.60700
N531        N  0.21782733  0.69880081  0.79833427    -0.05700
N532        N  0.22293682  0.66516178  0.82122375    -0.61800
Mn533      Mn  0.25397543  0.74662762  0.80866890     1.18400
C534        C  0.19853569  0.64425877  0.78970883     0.96500
C535        C  0.14988122  0.80089220  0.84277233     0.97200
N536        N  0.31568078  0.69852362  0.62545729    -0.08000
N537        N  0.32850048  0.66437381  0.63246051    -0.64300
N538        N  0.30518067  0.78091625  0.56604556    -0.06800
N539        N  0.32351654  0.79150022  0.51634759    -0.65000
N540        N  0.32735431  0.78301818  0.61318138    -0.07500
N541        N  0.36050566  0.79538044  0.59726561    -0.64600
N542        N  0.28994259  0.69871568  0.58230766    -0.06400
N543        N  0.28458926  0.66501581  0.55983510    -0.65200
Mn544      Mn  0.32232870  0.74660470  0.68997560     1.10700
C545        C  0.30879669  0.64407803  0.59165843     0.97700
C546        C  0.35805585  0.80047287  0.53723236     0.97800
N547        N  0.19210714  0.79461601  0.62564339    -0.07500
N548        N  0.17924596  0.82875221  0.63258953    -0.62900
N549        N  0.20258129  0.71208630  0.56664220    -0.06800
N550        N  0.18428011  0.70112530  0.51714816    -0.59600
N551        N  0.18047626  0.71005839  0.61387014    -0.08100
N552        N  0.14739258  0.69740271  0.59822875    -0.62400
N553        N  0.21776675  0.79441251  0.58236457    -0.07100
N554        N  0.22300988  0.82810316  0.55974202    -0.59600
Mn555      Mn  0.18550900  0.74661902  0.69040799     1.20200
Mn556      Mn  0.25385240  0.74654425  0.57171519     1.10100
Cl557      Cl  0.25391633  0.74658706  0.69019187    -0.87600
C558        C  0.19882123  0.84904185  0.59162561     0.94700
C559        C  0.14984798  0.69199264  0.53827552     0.94500
C560        C  0.39094205  0.81256482  0.50245039     0.78600
N561        N  0.41652161  0.78698381  0.48214745    -0.79700
C562        C  0.45272879  0.79736343  0.47099872     0.81000
N563        N  0.46311545  0.83357744  0.48216711    -0.79700
C564        C  0.43755292  0.85917347  0.50246682     0.81100
N565        N  0.40214680  0.84797881  0.51305689    -0.81400
C566        C  0.14513721  0.93396379  0.58053888     0.78600
N567        N  0.15698030  0.89977131  0.59545772    -0.79700
C568        C  0.19119753  0.88809228  0.58041129     0.81000
N569        N  0.21517656  0.91155706  0.55134024    -0.79700
C570        C  0.20416511  0.94725303  0.53865749     0.81100
N571        N  0.16845488  0.95810095  0.55148593    -0.81400
N572        N  0.46699162  0.56961850  0.76692074    -0.07700
N573        N  0.45445282  0.60273477  0.78269901    -0.59900
N574        N  0.05135500  0.53232975  0.79830926    -0.07400
N575        N  0.08497831  0.52720302  0.82120117    -0.62000
N576        N  0.05155784  0.55809600  0.75518980    -0.07000
N577        N  0.08563905  0.57116992  0.74863423    -0.59800
N578        N  0.46912147  0.54748725  0.81411366    -0.06700
N579        N  0.45839146  0.56582026  0.86372730    -0.62300
C580        C  0.44925867  0.60029553  0.84270655     0.94400
C581        C  0.10588874  0.55159607  0.78967864     0.94200
N582        N  0.03995000  0.92270323  0.76673251    -0.07900
N583        N  0.05246196  0.88957323  0.78250733    -0.60400
N584        N  0.45569907  0.96012640  0.79775567    -0.06100
N585        N  0.42196045  0.96563126  0.81994312    -0.61700
N586        N  0.45549733  0.93447553  0.75444434    -0.08000
N587        N  0.42130830  0.92189081  0.74704067    -0.60700
N588        N  0.03794734  0.94487039  0.81389906    -0.05700
N589        N  0.04879484  0.92657164  0.86347173    -0.61800
Mn590      Mn  0.00354211  0.49617875  0.80864160     1.18400
C591        C  0.05779324  0.89205806  0.84247964     0.96500
C592        C  0.40099432  0.94162965  0.78775666     0.97200
N593        N  0.04011040  0.56967210  0.61383492    -0.08000
N594        N  0.05278692  0.60275911  0.59819924    -0.64300
N595        N  0.45577415  0.53238648  0.58231450    -0.06800
N596        N  0.42209978  0.52713972  0.55968036    -0.65000
N597        N  0.45556818  0.55805960  0.62558791    -0.07500
N598        N  0.42144264  0.57092711  0.63251574    -0.64600
N599        N  0.03807402  0.54756012  0.56660698    -0.06400
N600        N  0.04904859  0.56586015  0.51711576    -0.65200
Mn601      Mn  0.00355748  0.56465829  0.69036409     1.10700
C602        C  0.05820260  0.60029754  0.53824905     0.97700
C603        C  0.40116403  0.55134133  0.59154600     0.97800
N604        N  0.46715349  0.92276037  0.61318166    -0.07500
N605        N  0.45477171  0.88960344  0.59727580    -0.62900
N606        N  0.05142583  0.96018075  0.58227499    -0.06800
N607        N  0.08511233  0.96556126  0.55981554    -0.59600
N608        N  0.05162921  0.93444029  0.62543810    -0.08100
N609        N  0.08577739  0.92164728  0.63246066    -0.62400
N610        N  0.46924715  0.94494404  0.56604639    -0.07100
N611        N  0.45863601  0.92661137  0.51635832    -0.59600
Mn612      Mn  0.50355893  0.92778751  0.68996883     1.20200
Mn613      Mn  0.00361730  0.49628142  0.57168787     1.10100
Cl614      Cl  0.00357854  0.49622574  0.69016537    -0.87600
C615        C  0.44965447  0.89206370  0.53724917     0.94700
C616        C  0.10605828  0.94136946  0.59165727     0.94500
C617        C  0.89605986  0.30809912  0.29862639     0.78600
N618        N  0.90789191  0.34223573  0.28338336    -0.79700
C619        C  0.94203364  0.35404185  0.29857938     0.81000
N620        N  0.96597654  0.33074978  0.32806729    -0.79700
C621        C  0.95499596  0.29509037  0.34101225     0.81100
N622        N  0.91933194  0.28413399  0.32811996    -0.81400
C623        C  0.82039393  0.38318142  0.00242890     0.78600
N624        N  0.85580478  0.39436910  0.01299553    -0.79700
C625        C  0.86701330  0.42978137  0.00238284     0.81000
N626        N  0.84143316  0.45536725  0.98209569    -0.79700
C627        C  0.80522104  0.44499469  0.97097142     0.81100
N628        N  0.79483071  0.40878251  0.98214634    -0.81400
C629        C  0.68787419  0.38313669  0.37713808     0.78600
N630        N  0.65240232  0.39414303  0.36660352    -0.79700
C631        C  0.64100861  0.42947608  0.37739468     0.81000
N632        N  0.66645001  0.45515432  0.39777963    -0.79700
C633        C  0.70272421  0.44496845  0.40875575     0.81100
N634        N  0.71330865  0.40883933  0.39746296    -0.81400
C635        C  0.94170159  0.13735543  0.08048869     0.78600
N636        N  0.96582869  0.16069865  0.05148101    -0.79700
C637        C  0.95497541  0.19641676  0.03865070     0.81000
N638        N  0.91928042  0.20741507  0.05129479    -0.79700
C639        C  0.89582260  0.18340884  0.08033398     0.81100
N640        N  0.90750893  0.14918032  0.09537467    -0.81400
N641        N  0.94230761  0.44766414  0.25436155    -0.07700
N642        N  0.92971468  0.41346787  0.24696092    -0.59900
N643        N  0.95266899  0.03013653  0.31383787    -0.07400
N644        N  0.93436332  0.04097057  0.36340738    -0.62000
N645        N  0.93051437  0.03213338  0.26666423    -0.07000
N646        N  0.89738746  0.04462751  0.28243185    -0.59800
N647        N  0.96794541  0.44786263  0.29767764    -0.06700
N648        N  0.97343334  0.41411050  0.31987501    -0.62300
C649        C  0.94943498  0.39314367  0.28768442     0.94400
C650        C  0.89985845  0.04995219  0.34240765     0.94200
N651        N  0.56587173  0.04377305  0.25514864    -0.07900
N652        N  0.57895849  0.07786049  0.24861026    -0.60400
N653        N  0.55527721  0.46131644  0.31408318    -0.06100
N654        N  0.57360853  0.45060322  0.36370621    -0.61700
N655        N  0.57740364  0.45919036  0.26689520    -0.08000
N656        N  0.61051385  0.44667009  0.28268716    -0.60700
N657        N  0.54010934  0.04357214  0.29825687    -0.05700
N658        N  0.53499815  0.07720655  0.32116131    -0.61800
Mn659      Mn  0.50397476  0.49573389  0.30858816     1.18400
C660        C  0.55939706  0.09811751  0.28965471     0.96500
C661        C  0.60807844  0.44148672  0.34269805     0.97200
N662        N  0.94225415  0.04381918  0.12537747    -0.08000
N663        N  0.92943144  0.07796655  0.13239277    -0.64300
N664        N  0.95277644  0.46143436  0.06596570    -0.06800
N665        N  0.93443820  0.45085318  0.01626835    -0.65000
N666        N  0.93060754  0.45932053  0.11310566    -0.07500
N667        N  0.89745856  0.44695098  0.09719359    -0.64600
N668        N  0.96799253  0.04363655  0.08222823    -0.06400
N669        N  0.97334295  0.07734061  0.05976911    -0.65200
Mn670      Mn  0.93562044  0.49573526  0.18989674     1.10700
C671        C  0.94913337  0.09827055  0.09159910     0.97700
C672        C  0.89990370  0.44186742  0.03715879     0.97800
N673        N  0.56585500  0.44776662  0.12556873    -0.07500
N674        N  0.57871780  0.41363186  0.13253016    -0.62900
N675        N  0.55535972  0.03028958  0.06655951    -0.06800
N676        N  0.57366454  0.04124428  0.01706488    -0.59600
N677        N  0.57746011  0.03232925  0.11379289    -0.08100
N678        N  0.61054241  0.04498884  0.09815477    -0.62400
N679        N  0.54019491  0.44796210  0.08228924    -0.07100
N680        N  0.53495294  0.41426786  0.05968262    -0.59600
Mn681      Mn  0.57244011  0.99576648  0.19033088     1.20200
Mn682      Mn  0.50409624  0.49581933  0.07163459     1.10100
Cl683      Cl  0.50403290  0.49577583  0.19011211    -0.87600
C684        C  0.55914303  0.39333530  0.09157546     0.94700
C685        C  0.60809275  0.05038745  0.03819829     0.94500
C686        C  0.61281342  0.30840238  0.08054579     0.78600
N687        N  0.60097650  0.34260030  0.09544237    -0.79700
C688        C  0.56676056  0.35428100  0.08038977     0.81000
N689        N  0.54277669  0.33081282  0.05133702    -0.79700
C690        C  0.55378158  0.29511184  0.03867967     0.81100
N691        N  0.58949099  0.28426211  0.05151088    -0.81400
C692        C  0.86703438  0.06223816  0.37709281     0.78600
N693        N  0.85602978  0.09772359  0.36655693    -0.79700
C694        C  0.82071232  0.10912153  0.37736261     0.81000
N695        N  0.79504767  0.08367176  0.39775627    -0.79700
C696        C  0.80522871  0.04738439  0.40873086     0.81100
N697        N  0.84134351  0.03679356  0.39743077    -0.81400
C698        C  0.56705804  0.13714636  0.30112778     0.78600
N699        N  0.54290428  0.16065314  0.32975141    -0.79700
C700        C  0.55379838  0.19639893  0.34235905     0.81000
N701        N  0.58953937  0.20728894  0.32977804    -0.79700
C702        C  0.61303479  0.18312154  0.30114700     0.81100
N703        N  0.60132714  0.14884629  0.28639520    -0.81400
C704        C  0.68755767  0.10918481  0.00362053     0.78600
N705        N  0.71309851  0.08361916  0.98324425    -0.79700
C706        C  0.70271630  0.04741620  0.97214626     0.81000
N707        N  0.66652441  0.03702998  0.98322856    -0.79700
C708        C  0.64096774  0.06258106  0.00360776     0.81100
N709        N  0.65216568  0.09798501  0.01432900    -0.81400
N710        N  0.79095150  0.17274065  0.26689850    -0.07700
N711        N  0.80349449  0.13962494  0.28267224    -0.59900
N712        N  0.70659230  0.21003478  0.29829351    -0.07400
N713        N  0.67297161  0.21516040  0.32119517    -0.62000
N714        N  0.70638490  0.18426947  0.25517407    -0.05800
N715        N  0.67230301  0.17119530  0.24862807    -0.59800
N716        N  0.78882609  0.19487064  0.31409190    -0.06700
N717        N  0.79956301  0.17653687  0.36370250    -0.62300
C718        C  0.80869617  0.14206291  0.34267801     0.94400
C719        C  0.65205771  0.19076754  0.28967887     0.94200
N720        N  0.71800843  0.31966121  0.26670742    -0.07900
N721        N  0.70549541  0.35279131  0.28247650    -0.60400
N722        N  0.80225507  0.28223069  0.29773682    -0.06100
N723        N  0.83599169  0.27672737  0.31993484    -0.61700
N724        N  0.80245992  0.30788131  0.25442372    -0.08000
N725        N  0.83664914  0.32046741  0.24702896    -0.60700
N726        N  0.72000750  0.29749409  0.31387571    -0.05700
N727        N  0.70915658  0.31579335  0.36344466    -0.61800
Mn728      Mn  0.75440881  0.24618206  0.30862183     1.18400
C729        C  0.70015954  0.35030699  0.34244764     0.96500
C730        C  0.85695993  0.30072994  0.28775314     0.97200
N731        N  0.71783006  0.17269062  0.11381288    -0.08000
N732        N  0.70515887  0.13960245  0.09817189    -0.64300
N733        N  0.80216865  0.20997149  0.08229648    -0.06800
N734        N  0.83584462  0.21521993  0.05967059    -0.65000
N735        N  0.80237220  0.18429771  0.12557020    -0.07500
N736        N  0.83649765  0.17143112  0.13250634    -0.64600
N737        N  0.71986888  0.19480407  0.06658567    -0.06400
N738        N  0.70890112  0.17650443  0.01709083    -0.65200
Mn739      Mn  0.75438306  0.17770285  0.19034485     1.10700
C740        C  0.69974951  0.14206521  0.03821976     0.97700
C741        C  0.85677864  0.19101875  0.09154206     0.97800
N742        N  0.79080222  0.31959704  0.11315634    -0.07500
N743        N  0.80318382  0.35275346  0.09724523    -0.62900
N744        N  0.70652412  0.28218487  0.08225806    -0.06800
N745        N  0.67283467  0.27680351  0.05981010    -0.59600
N746        N  0.70632595  0.30792566  0.12541912    -0.08100
N747        N  0.67217845  0.32071812  0.13245159    -0.62400
N748        N  0.78870310  0.29741356  0.06602262    -0.07100
N749        N  0.79931043  0.31574539  0.01633123    -0.59600
Mn750      Mn  0.75439873  0.31457366  0.18994577     1.20200
Mn751      Mn  0.75432877  0.24608013  0.07166810     1.10100
Cl752      Cl  0.75437009  0.24613536  0.19014483    -0.87600
C753        C  0.80829520  0.35029259  0.03721764     0.94700
C754        C  0.65189260  0.30099503  0.09165698     0.94500
C755        C  0.72921930  0.47241995  0.50407841     0.00700
C756        C  0.72915067  0.47166216  0.44007380     0.00600
C757        C  0.75402053  0.49613266  0.40826383    -0.19900
C758        C  0.77854036  0.02095958  0.44006219     0.00700
C759        C  0.77779864  0.02088937  0.50406706     0.00600
C760        C  0.75331047  0.49685657  0.53530035    -0.19900
H761        H  0.75309663  0.49707544  0.58450379     0.02700
H762        H  0.75427730  0.49587093  0.35915413     0.02700
C763        C  0.97941056  0.22140176  0.94008541     0.00700
C764        C  0.98014741  0.22147597  0.00409020     0.00600
C765        C  0.00463339  0.24550998  0.03532495    -0.19900
C766        C  0.52872683  0.26994468  0.00410319     0.00700
C767        C  0.52879947  0.27069978  0.94009860     0.00600
C768        C  0.00393217  0.24622747  0.90828745    -0.19900
H769        H  0.00367841  0.24648711  0.85917658     0.02700
H770        H  0.00484450  0.24529281  0.08452827     0.02700
C771        C  0.97998172  0.27010022  0.37595260     0.00700
C772        C  0.97937914  0.27070776  0.43996474     0.00600
C773        C  0.50399676  0.24613588  0.47207162    -0.19900
C774        C  0.52876885  0.22141049  0.44056484     0.00700
C775        C  0.52855997  0.22163188  0.37656127     0.00600
C776        C  0.50435307  0.24578536  0.34502710    -0.19900
H777        H  0.50447969  0.24566212  0.29582340     0.02700
H778        H  0.50388119  0.24625118  0.52118516     0.02700
C779        C  0.77857084  0.47165254  0.93994067     0.00700
C780        C  0.77796858  0.47226159  0.87592869     0.00600
C781        C  0.75359720  0.49657692  0.84500278    -0.19900
C782        C  0.72939045  0.02072926  0.87653704     0.00700
C783        C  0.72918191  0.02095033  0.94054051     0.00600
C784        C  0.75395385  0.49622394  0.97204784    -0.19900
H785        H  0.75406986  0.49610752  0.02116176     0.02700
H786        H  0.75347032  0.49670139  0.79579746     0.02700
C787        C  0.81592773  0.38830972  0.79860604     0.78600
N788        N  0.85006791  0.40011705  0.78340439    -0.79700
C789        C  0.86189428  0.43425938  0.79862371     0.81000
N790        N  0.83861791  0.45822853  0.82809760    -0.79700
C791        C  0.80295480  0.44727070  0.84099235     0.81100
N792        N  0.79198050  0.41160594  0.82807398    -0.81400
C793        C  0.89091182  0.18010681  0.87716239     0.78600
N794        N  0.90192213  0.14462446  0.86661796    -0.79700
C795        C  0.93724545  0.13323482  0.87739682     0.81000
N796        N  0.96291006  0.15869003  0.89777259    -0.79700
C797        C  0.95272334  0.19497439  0.90875694     0.81100
N798        N  0.91660234  0.20555654  0.89748426    -0.81400
C799        C  0.64491151  0.05924357  0.80114067     0.78600
N800        N  0.65661279  0.09352509  0.78641278    -0.79700
C801        C  0.69088043  0.10522600  0.80115247     0.81000
N802        N  0.71503890  0.08171464  0.82975725    -0.79700
C803        C  0.70415146  0.04596332  0.84233786     0.81100
N804        N  0.66841167  0.03507163  0.82975309    -0.81400
C805        C  0.57007533  0.35922941  0.87717713     0.78600
N806        N  0.60555113  0.34822877  0.86666592    -0.79700
C807        C  0.61694756  0.31289706  0.87746269     0.81000
N808        N  0.59150515  0.28721462  0.89783171    -0.79700
C809        C  0.55522679  0.29739486  0.90878460     0.81100
N810        N  0.54463988  0.33352267  0.89748542    -0.81400
C811        C  0.61697770  0.17979319  0.50367790     0.78600
N812        N  0.60578454  0.14438662  0.51439140    -0.79700
C813        C  0.57039756  0.13317959  0.50365617     0.81000
N814        N  0.54485692  0.15874068  0.48326243    -0.79700
C815        C  0.55523448  0.19494620  0.47217430     0.81100
N816        N  0.59142101  0.20533983  0.48328287    -0.81400
C817        C  0.81623322  0.10499672  0.58052008     0.78600
N818        N  0.85042743  0.09317212  0.59539985    -0.79700
C819        C  0.86211973  0.05895031  0.58033346     0.81000
N820        N  0.83866624  0.03494971  0.55127309    -0.79700
C821        C  0.80297013  0.04594692  0.53863221     0.81100
N822        N  0.79211041  0.08165904  0.55149116    -0.81400
N823        N  0.81565541  0.29467864  0.75443853    -0.07700
N824        N  0.82825051  0.32887326  0.74702430    -0.59900
N825        N  0.80527322  0.21221212  0.81392070    -0.07400
N826        N  0.82358241  0.20138119  0.86349029    -0.62000
N827        N  0.82742220  0.21020373  0.76674227    -0.07000
N828        N  0.86054722  0.19770250  0.78250596    -0.59800
N829        N  0.79001775  0.29448804  0.79775462    -0.06700
N830        N  0.78453201  0.32824355  0.81993716    -0.62300
C831        C  0.80853172  0.34920423  0.78773877     0.94400
C832        C  0.85808220  0.19238684  0.84248406     0.94200
N833        N  0.69206416  0.19860958  0.75522596    -0.07900
N834        N  0.67897500  0.16452424  0.74867330    -0.60400
N835        N  0.70268109  0.28105736  0.81416284    -0.06100
N836        N  0.68434741  0.29176483  0.86378590    -0.61700
N837        N  0.68055851  0.28319549  0.76697032    -0.08000
N838        N  0.64745002  0.29572002  0.78275914    -0.60700
N839        N  0.71782732  0.19880080  0.79833430    -0.05700
N840        N  0.72293681  0.16516187  0.82122376    -0.61800
Mn841      Mn  0.75397544  0.24662759  0.80866891     1.18400
C842        C  0.69853568  0.14425879  0.78970883     0.96500
C843        C  0.64988121  0.30089216  0.84277233     0.97200
N844        N  0.81568078  0.19852357  0.62545729    -0.08000
N845        N  0.82850048  0.16437376  0.63246052    -0.64300
N846        N  0.80518066  0.28091624  0.56604555    -0.06800
N847        N  0.82351655  0.29150020  0.51634759    -0.65000
N848        N  0.82735432  0.28301822  0.61318140    -0.07500
N849        N  0.86050563  0.29538049  0.59726562    -0.64600
N850        N  0.78994259  0.19871562  0.58230766    -0.06400
N851        N  0.78458926  0.16501576  0.55983511    -0.65200
Mn852      Mn  0.82232869  0.24660467  0.68997560     1.10700
C853        C  0.80879669  0.14407798  0.59165843     0.97700
C854        C  0.85805583  0.30047293  0.53723235     0.97800
N855        N  0.69210712  0.29461599  0.62564340    -0.07500
N856        N  0.67924596  0.32875217  0.63258954    -0.62900
N857        N  0.70258132  0.21208624  0.56664220    -0.06800
N858        N  0.68428013  0.20112522  0.51714818    -0.59600
N859        N  0.68047625  0.21005839  0.61387014    -0.08100
N860        N  0.64739255  0.19740282  0.59822872    -0.62400
N861        N  0.71776675  0.29441249  0.58236454    -0.07100
N862        N  0.72300988  0.32810312  0.55974203    -0.59600
Mn863      Mn  0.68550900  0.24661899  0.69040798     1.20200
Mn864      Mn  0.75385241  0.24654420  0.57171519     1.10100
Cl865      Cl  0.75391632  0.24658700  0.69019187    -0.87600
C866        C  0.69882124  0.34904186  0.59162563     0.94700
C867        C  0.64984797  0.19199266  0.53827550     0.94500
C868        C  0.89094204  0.31256487  0.50245038     0.78600
N869        N  0.91652160  0.28698385  0.48214742    -0.79700
C870        C  0.95272880  0.29736346  0.47099870     0.81000
N871        N  0.96311547  0.33357745  0.48216713    -0.79700
C872        C  0.93755294  0.35917349  0.50246690     0.81100
N873        N  0.90214681  0.34797884  0.51305693    -0.81400
C874        C  0.64513720  0.43396381  0.58053887     0.78600
N875        N  0.65698028  0.39977133  0.59545767    -0.79700
C876        C  0.69119752  0.38809227  0.58041128     0.81000
N877        N  0.71517655  0.41155709  0.55134019    -0.79700
C878        C  0.70416510  0.44725305  0.53865750     0.81100
N879        N  0.66845488  0.45810100  0.55148598    -0.81400
N880        N  0.96699168  0.06961858  0.76692074    -0.07700
N881        N  0.95445283  0.10273474  0.78269899    -0.59900
N882        N  0.55135500  0.03232973  0.79830926    -0.07400
N883        N  0.58497829  0.02720301  0.82120119    -0.62000
N884        N  0.55155784  0.05809596  0.75518976    -0.07000
N885        N  0.58563904  0.07116990  0.74863424    -0.59800
N886        N  0.96912158  0.04748727  0.81411368    -0.06700
N887        N  0.95839149  0.06582027  0.86372729    -0.62300
C888        C  0.94925864  0.10029552  0.84270657     0.94400
C889        C  0.60588873  0.05159610  0.78967869     0.94200
N890        N  0.53994998  0.42270320  0.76673251    -0.07900
N891        N  0.55246197  0.38957320  0.78250735    -0.60400
N892        N  0.95569906  0.46012636  0.79775567    -0.06100
N893        N  0.92196045  0.46563121  0.81994313    -0.61700
N894        N  0.95549731  0.43447549  0.75444433    -0.08000
N895        N  0.92130827  0.42189075  0.74704068    -0.60700
N896        N  0.53794733  0.44487038  0.81389901    -0.05700
N897        N  0.54879484  0.42657165  0.86347173    -0.61800
Mn898      Mn  0.50354209  0.99617878  0.80864159     1.18400
C899        C  0.55779327  0.39205809  0.84247966     0.96500
C900        C  0.90099431  0.44162960  0.78775667     0.97200
N901        N  0.54011040  0.06967205  0.61383492    -0.08000
N902        N  0.55278693  0.10275905  0.59819924    -0.64300
N903        N  0.95577415  0.03238649  0.58231447    -0.06800
N904        N  0.92209979  0.02713978  0.55968027    -0.65000
N905        N  0.95556817  0.05805957  0.62558796    -0.07500
N906        N  0.92144264  0.07092707  0.63251581    -0.64600
N907        N  0.53807401  0.04756008  0.56660697    -0.06400
N908        N  0.54904859  0.06586011  0.51711576    -0.65200
Mn909      Mn  0.50355750  0.06465826  0.69036410     1.10700
C910        C  0.55820262  0.10029750  0.53824904     0.97700
C911        C  0.90116403  0.05134131  0.59154599     0.97800
N912        N  0.96715343  0.42276047  0.61318164    -0.07500
N913        N  0.95477164  0.38960351  0.59727584    -0.62900
N914        N  0.55142582  0.46018076  0.58227496    -0.06800
N915        N  0.58511232  0.46556134  0.55981558    -0.59600
N916        N  0.55162921  0.43444030  0.62543808    -0.08100
N917        N  0.58577742  0.42164735  0.63246069    -0.62400
N918        N  0.96924717  0.44494406  0.56604633    -0.07100
N919        N  0.95863605  0.42661137  0.51635827    -0.59600
Mn920      Mn  0.00355885  0.42778748  0.68996880     1.20200
Mn921      Mn  0.50361727  0.99628141  0.57168788     1.10100
Cl922      Cl  0.50357846  0.99622578  0.69016537    -0.87600
C923        C  0.94965447  0.39206372  0.53724920     0.94700
C924        C  0.60605829  0.44136952  0.59165728     0.94500
C925        C  0.89605990  0.80809906  0.29862634     0.78600
N926        N  0.90789199  0.84223568  0.28338323    -0.79700
C927        C  0.94203365  0.85404184  0.29857935     0.81000
N928        N  0.96597657  0.83074979  0.32806735    -0.79700
C929        C  0.95499599  0.79509039  0.34101228     0.81100
N930        N  0.91933196  0.78413399  0.32812000    -0.81400
C931        C  0.82039393  0.88318143  0.00242893     0.78600
N932        N  0.85580481  0.89436911  0.01299551    -0.79700
C933        C  0.86701332  0.92978140  0.00238281     0.81000
N934        N  0.84143314  0.95536726  0.98209576    -0.79700
C935        C  0.80522101  0.94499469  0.97097143     0.81100
N936        N  0.79483073  0.90878248  0.98214632    -0.81400
C937        C  0.68787412  0.88313669  0.37713805     0.78600
N938        N  0.65240228  0.89414305  0.36660349    -0.79700
C939        C  0.64100859  0.92947610  0.37739469     0.81000
N940        N  0.66645003  0.95515431  0.39777964    -0.79700
C941        C  0.70272419  0.94496840  0.40875578     0.81100
N942        N  0.71330860  0.90883927  0.39746303    -0.81400
C943        C  0.94170163  0.63735541  0.08048867     0.78600
N944        N  0.96582878  0.66069854  0.05148094    -0.79700
C945        C  0.95497553  0.69641672  0.03865072     0.81000
N946        N  0.91928058  0.70741502  0.05129477    -0.79700
C947        C  0.89582269  0.68340886  0.08033399     0.81100
N948        N  0.90750905  0.64918031  0.09537474    -0.81400
N949        N  0.94230758  0.94766413  0.25436158    -0.07700
N950        N  0.92971467  0.91346784  0.24696093    -0.59900
N951        N  0.95266903  0.53013650  0.31383790    -0.07400
N952        N  0.93436333  0.54097046  0.36340744    -0.62000
N953        N  0.93051450  0.53213339  0.26666426    -0.07000
N954        N  0.89738752  0.54462753  0.28243185    -0.59800
N955        N  0.96794539  0.94786261  0.29767769    -0.06700
N956        N  0.97343334  0.91411052  0.31987499    -0.62300
C957        C  0.94943502  0.89314365  0.28768440     0.94400
C958        C  0.89985851  0.54995217  0.34240761     0.94200
N959        N  0.56587183  0.54377309  0.25514862    -0.07900
N960        N  0.57895853  0.57786050  0.24861030    -0.60400
N961        N  0.55527728  0.96131651  0.31408323    -0.06100
N962        N  0.57360857  0.95060328  0.36370616    -0.61700
N963        N  0.57740376  0.95919042  0.26689516    -0.08000
N964        N  0.61051391  0.94667016  0.28268715    -0.60700
N965        N  0.54010936  0.54357219  0.29825688    -0.05700
N966        N  0.53499817  0.57720656  0.32116127    -0.61800
Mn967      Mn  0.50397476  0.99573390  0.30858816     1.18400
C968        C  0.55939715  0.59811757  0.28965469     0.96500
C969        C  0.60807852  0.94148678  0.34269806     0.97200
N970        N  0.94225412  0.54381921  0.12537754    -0.08000
N971        N  0.92943142  0.57796659  0.13239277    -0.64300
N972        N  0.95277652  0.96143425  0.06596564    -0.06800
N973        N  0.93443829  0.95085315  0.01626839    -0.65000
N974        N  0.93060757  0.95932037  0.11310573    -0.07500
N975        N  0.89745865  0.94695091  0.09719356    -0.64600
N976        N  0.96799251  0.54363657  0.08222823    -0.06400
N977        N  0.97334290  0.57734055  0.05976908    -0.65200
Mn978      Mn  0.93562041  0.99573518  0.18989673     1.10700
C979        C  0.94913335  0.59827053  0.09159905     0.97700
C980        C  0.89990373  0.94186739  0.03715873     0.97800
N981        N  0.56585499  0.94776668  0.12556874    -0.07500
N982        N  0.57871777  0.91363192  0.13253019    -0.62900
N983        N  0.55535977  0.53028943  0.06655951    -0.06800
N984        N  0.57366455  0.54124422  0.01706485    -0.59600
N985        N  0.57746008  0.53232910  0.11379284    -0.08100
N986        N  0.61054244  0.54498880  0.09815477    -0.62400
N987        N  0.54019492  0.94796216  0.08228921    -0.07100
N988        N  0.53495292  0.91426792  0.05968263    -0.59600
Mn989      Mn  0.57244013  0.49576642  0.19033091     1.20200
Mn990      Mn  0.50409626  0.99581937  0.07163459     1.10100
Cl991      Cl  0.50403287  0.99577587  0.19011211    -0.87600
C992        C  0.55914302  0.89333535  0.09157549     0.94700
C993        C  0.60809276  0.55038736  0.03819833     0.94500
C994        C  0.61281347  0.80840247  0.08054577     0.78600
N995        N  0.60097655  0.84260039  0.09544230    -0.79700
C996        C  0.56676058  0.85428107  0.08038976     0.81000
N997        N  0.54277671  0.83081288  0.05133707    -0.79700
C998        C  0.55378159  0.79511190  0.03867968     0.81100
N999        N  0.58949100  0.78426217  0.05151089    -0.81400
C1000       C  0.86703442  0.56223819  0.37709275     0.78600
N1001       N  0.85602984  0.59772361  0.36655690    -0.79700
C1002       C  0.82071238  0.60912159  0.37736262     0.81000
N1003       N  0.79504773  0.58367181  0.39775632    -0.79700
C1004       C  0.80522876  0.54738444  0.40873089     0.81100
N1005       N  0.84134354  0.53679359  0.39743076    -0.81400
C1006       C  0.56705802  0.63714638  0.30112779     0.78600
N1007       N  0.54290434  0.66065319  0.32975133    -0.79700
C1008       C  0.55379841  0.69639894  0.34235905     0.81000
N1009       N  0.58953946  0.70728894  0.32977806    -0.79700
C1010       C  0.61303481  0.68312149  0.30114706     0.81100
N1011       N  0.60132722  0.64884630  0.28639524    -0.81400
C1012       C  0.68755776  0.60918474  0.00362057     0.78600
N1013       N  0.71309859  0.58361912  0.98324428    -0.79700
C1014       C  0.70271637  0.54741615  0.97214622     0.81000
N1015       N  0.66652445  0.53702992  0.98322854    -0.79700
C1016       C  0.64096782  0.56258097  0.00360776     0.81100
N1017       N  0.65216574  0.59798491  0.01432905    -0.81400
N1018       N  0.79095145  0.67274055  0.26689847    -0.07700
N1019       N  0.80349446  0.63962495  0.28267223    -0.59900
N1020       N  0.70659225  0.71003483  0.29829347    -0.07400
N1021       N  0.67297157  0.71516041  0.32119518    -0.62000
N1022       N  0.70638488  0.68426953  0.25517403    -0.05800
N1023       N  0.67230300  0.67119529  0.24862806    -0.59800
N1024       N  0.78882604  0.69487063  0.31409197    -0.06700
N1025       N  0.79956302  0.67653688  0.36370243    -0.62300
C1026       C  0.80869624  0.64206290  0.34267803     0.94400
C1027       C  0.65205774  0.69076749  0.28967893     0.94200
N1028       N  0.71800839  0.81966112  0.26670743    -0.07900
N1029       N  0.70549535  0.85279131  0.28247646    -0.60400
N1030       N  0.80225504  0.78223069  0.29773681    -0.06100
N1031       N  0.83599167  0.77672739  0.31993493    -0.61700
N1032       N  0.80245987  0.80788123  0.25442370    -0.08000
N1033       N  0.83664912  0.82046740  0.24702896    -0.60700
N1034       N  0.72000745  0.79749411  0.31387571    -0.05700
N1035       N  0.70915655  0.81579338  0.36344471    -0.61800
Mn1036     Mn  0.75440877  0.74618207  0.30862185     1.18400
C1037       C  0.70015948  0.85030698  0.34244757     0.96500
C1038       C  0.85695990  0.80072997  0.28775316     0.97200
N1039       N  0.71783003  0.67269067  0.11381288    -0.08000
N1040       N  0.70515882  0.63960250  0.09817191    -0.64300
N1041       N  0.80216879  0.70997150  0.08229640    -0.06800
N1042       N  0.83584468  0.71521985  0.05967052    -0.65000
N1043       N  0.80237234  0.68429769  0.12557034    -0.07500
N1044       N  0.83649771  0.67143118  0.13250641    -0.64600
N1045       N  0.71986889  0.69480409  0.06658564    -0.06400
N1046       N  0.70890109  0.67650444  0.01709081    -0.65200
Mn1047     Mn  0.75438304  0.67770289  0.19034485     1.10700
C1048       C  0.69974949  0.64206522  0.03821978     0.97700
C1049       C  0.85677880  0.69101873  0.09154206     0.97800
N1050       N  0.79080220  0.81959702  0.11315633    -0.07500
N1051       N  0.80318379  0.85275341  0.09724529    -0.62900
N1052       N  0.70652416  0.78218483  0.08225800    -0.06800
N1053       N  0.67283470  0.77680355  0.05981011    -0.59600
N1054       N  0.70632596  0.80792567  0.12541911    -0.08100
N1055       N  0.67217854  0.82071817  0.13245156    -0.62400
N1056       N  0.78870309  0.79741352  0.06602254    -0.07100
N1057       N  0.79931040  0.81574541  0.01633123    -0.59600
Mn1058     Mn  0.75439871  0.81457355  0.18994576     1.20200
Mn1059     Mn  0.75432885  0.74608007  0.07166808     1.10100
Cl1060     Cl  0.75437006  0.74613536  0.19014483    -0.87600
C1061       C  0.80829520  0.85029259  0.03721767     0.94700
C1062       C  0.65189263  0.80099508  0.09165696     0.94500
C1063       C  0.72921929  0.97241990  0.50407841     0.00700
C1064       C  0.72915065  0.97166212  0.44007381     0.00600
C1065       C  0.75402045  0.99613264  0.40826383    -0.19900
C1066       C  0.77854040  0.52095961  0.44006221     0.00700
C1067       C  0.77779870  0.52088937  0.50406707     0.00600
C1068       C  0.75331041  0.99685659  0.53530035    -0.19900
H1069       H  0.75309653  0.99707546  0.58450380     0.02700
H1070       H  0.75427721  0.99587096  0.35915413     0.02700
C1071       C  0.97941055  0.72140176  0.94008543     0.00700
C1072       C  0.98014751  0.72147592  0.00409022     0.00600
C1073       C  0.00463340  0.74551005  0.03532496    -0.19900
C1074       C  0.52872678  0.76994473  0.00410320     0.00700
C1075       C  0.52879947  0.77069975  0.94009859     0.00600
C1076       C  0.00393220  0.74622740  0.90828746    -0.19900
H1077       H  0.00367844  0.74648701  0.85917658     0.02700
H1078       H  0.00484450  0.74529293  0.08452828     0.02700
C1079       C  0.97998174  0.77010026  0.37595262     0.00700
C1080       C  0.97937915  0.77070777  0.43996476     0.00600
C1081       C  0.50399676  0.74613586  0.47207161    -0.19900
C1082       C  0.52876884  0.72141045  0.44056485     0.00700
C1083       C  0.52856003  0.72163191  0.37656126     0.00600
C1084       C  0.50435322  0.74578548  0.34502710    -0.19900
H1085       H  0.50447991  0.74566229  0.29582339     0.02700
H1086       H  0.50388119  0.74625118  0.52118515     0.02700
C1087       C  0.77857081  0.97165254  0.93994069     0.00700
C1088       C  0.77796858  0.97226160  0.87592870     0.00600
C1089       C  0.75359713  0.99657685  0.84500278    -0.19900
C1090       C  0.72939043  0.52072923  0.87653704     0.00700
C1091       C  0.72918189  0.52095025  0.94054051     0.00600
C1092       C  0.75395382  0.99622398  0.97204784    -0.19900
H1093       H  0.75406977  0.99610753  0.02116177     0.02700
H1094       H  0.75347020  0.99670123  0.79579744     0.02700
C1095       C  0.81592779  0.88830976  0.79860607     0.78600
N1096       N  0.85006794  0.90011710  0.78340436    -0.79700
C1097       C  0.86189430  0.93425945  0.79862368     0.81000
N1098       N  0.83861796  0.95822857  0.82809764    -0.79700
C1099       C  0.80295483  0.94727074  0.84099236     0.81100
N1100       N  0.79198054  0.91160599  0.82807396    -0.81400
C1101       C  0.89091180  0.68010678  0.87716240     0.78600
N1102       N  0.90192212  0.64462445  0.86661794    -0.79700
C1103       C  0.93724546  0.63323482  0.87739681     0.81000
N1104       N  0.96291006  0.65869003  0.89777257    -0.79700
C1105       C  0.95272333  0.69497438  0.90875698     0.81100
N1106       N  0.91660230  0.70555651  0.89748432    -0.81400
C1107       C  0.64491149  0.55924356  0.80114070     0.78600
N1108       N  0.65661278  0.59352508  0.78641277    -0.79700
C1109       C  0.69088047  0.60522593  0.80115242     0.81000
N1110       N  0.71503890  0.58171463  0.82975722    -0.79700
C1111       C  0.70415145  0.54596327  0.84233790     0.81100
N1112       N  0.66841165  0.53507163  0.82975310    -0.81400
C1113       C  0.57007533  0.85922934  0.87717711     0.78600
N1114       N  0.60555116  0.84822875  0.86666599    -0.79700
C1115       C  0.61694757  0.81289703  0.87746271     0.81000
N1116       N  0.59150516  0.78721455  0.89783165    -0.79700
C1117       C  0.55522682  0.79739477  0.90878458     0.81100
N1118       N  0.54463992  0.83352261  0.89748540    -0.81400
C1119       C  0.61697774  0.67979321  0.50367794     0.78600
N1120       N  0.60578460  0.64438661  0.51439138    -0.79700
C1121       C  0.57039763  0.63317960  0.50365615     0.81000
N1122       N  0.54485698  0.65874066  0.48326244    -0.79700
C1123       C  0.55523452  0.69494621  0.47217429     0.81100
N1124       N  0.59142104  0.70533984  0.48328289    -0.81400
C1125       C  0.81623328  0.60499675  0.58052005     0.78600
N1126       N  0.85042742  0.59317217  0.59539983    -0.79700
C1127       C  0.86211974  0.55895031  0.58033345     0.81000
N1128       N  0.83866623  0.53494974  0.55127313    -0.79700
C1129       C  0.80297016  0.54594691  0.53863226     0.81100
N1130       N  0.79211041  0.58165907  0.55149116    -0.81400
N1131       N  0.81565541  0.79467866  0.75443855    -0.07700
N1132       N  0.82825054  0.82887331  0.74702425    -0.59900
N1133       N  0.80527318  0.71221216  0.81392070    -0.07400
N1134       N  0.82358237  0.70138124  0.86349030    -0.62000
N1135       N  0.82742216  0.71020379  0.76674228    -0.07000
N1136       N  0.86054718  0.69770256  0.78250597    -0.59800
N1137       N  0.79001784  0.79448801  0.79775459    -0.06700
N1138       N  0.78453207  0.82824359  0.81993721    -0.62300
C1139       C  0.80853177  0.84920422  0.78773882     0.94400
C1140       C  0.85808216  0.69238687  0.84248406     0.94200
N1141       N  0.69206412  0.69860952  0.75522598    -0.07900
N1142       N  0.67897497  0.66452423  0.74867332    -0.60400
N1143       N  0.70268106  0.78105742  0.81416282    -0.06100
N1144       N  0.68434739  0.79176488  0.86378589    -0.61700
N1145       N  0.68055847  0.78319554  0.76697032    -0.08000
N1146       N  0.64744999  0.79572007  0.78275914    -0.60700
N1147       N  0.71782728  0.69880081  0.79833428    -0.05700
N1148       N  0.72293679  0.66516180  0.82122377    -0.61800
Mn1149     Mn  0.75397541  0.74662762  0.80866892     1.18400
C1150       C  0.69853566  0.64425877  0.78970880     0.96500
C1151       C  0.64988119  0.80089219  0.84277233     0.97200
N1152       N  0.81568075  0.69852361  0.62545734    -0.08000
N1153       N  0.82850047  0.66437382  0.63246059    -0.64300
N1154       N  0.80518063  0.78091625  0.56604555    -0.06800
N1155       N  0.82351651  0.79150023  0.51634758    -0.65000
N1156       N  0.82735427  0.78301818  0.61318137    -0.07500
N1157       N  0.86050562  0.79538045  0.59726560    -0.64600
N1158       N  0.78994259  0.69871567  0.58230764    -0.06400
N1159       N  0.78458935  0.66501582  0.55983502    -0.65200
Mn1160     Mn  0.82232865  0.74660470  0.68997560     1.10700
C1161       C  0.80879670  0.64407804  0.59165838     0.97700
C1162       C  0.85805582  0.80047289  0.53723236     0.97800
N1163       N  0.69210721  0.79461600  0.62564341    -0.07500
N1164       N  0.67924595  0.82875223  0.63258955    -0.62900
N1165       N  0.70258130  0.71208632  0.56664213    -0.06800
N1166       N  0.68428010  0.70112532  0.51714815    -0.59600
N1167       N  0.68047625  0.71005837  0.61387014    -0.08100
N1168       N  0.64739263  0.69740268  0.59822879    -0.62400
N1169       N  0.71776674  0.79441251  0.58236461    -0.07100
N1170       N  0.72300985  0.82810318  0.55974196    -0.59600
Mn1171     Mn  0.68550898  0.74661902  0.69040800     1.20200
Mn1172     Mn  0.75385238  0.74654425  0.57171517     1.10100
Cl1173     Cl  0.75391628  0.74658706  0.69019188    -0.87600
C1174       C  0.69882122  0.84904183  0.59162557     0.94700
C1175       C  0.64984798  0.69199263  0.53827552     0.94500
C1176       C  0.89094207  0.81256481  0.50245040     0.78600
N1177       N  0.91652162  0.78698381  0.48214745    -0.79700
C1178       C  0.95272882  0.79736343  0.47099874     0.81000
N1179       N  0.96311548  0.83357744  0.48216710    -0.79700
C1180       C  0.93755295  0.85917347  0.50246682     0.81100
N1181       N  0.90214684  0.84797880  0.51305694    -0.81400
C1182       C  0.64513718  0.93396379  0.58053888     0.78600
N1183       N  0.65698029  0.89977130  0.59545769    -0.79700
C1184       C  0.69119751  0.88809229  0.58041131     0.81000
N1185       N  0.71517658  0.91155708  0.55134030    -0.79700
C1186       C  0.70416509  0.94725303  0.53865751     0.81100
N1187       N  0.66845487  0.95810094  0.55148590    -0.81400
N1188       N  0.96699164  0.56961851  0.76692075    -0.07700
N1189       N  0.95445278  0.60273474  0.78269899    -0.59900
N1190       N  0.55135498  0.53232975  0.79830930    -0.07400
N1191       N  0.58497828  0.52720302  0.82120115    -0.62000
N1192       N  0.55155783  0.55809602  0.75518979    -0.07000
N1193       N  0.58563902  0.57116991  0.74863422    -0.59800
N1194       N  0.96912155  0.54748727  0.81411367    -0.06700
N1195       N  0.95839148  0.56582027  0.86372731    -0.62300
C1196       C  0.94925865  0.60029552  0.84270654     0.94400
C1197       C  0.60588874  0.55159606  0.78967862     0.94200
N1198       N  0.53995000  0.92270324  0.76673249    -0.07900
N1199       N  0.55246191  0.88957321  0.78250734    -0.60400
N1200       N  0.95569906  0.96012640  0.79775567    -0.06100
N1201       N  0.92196046  0.96563128  0.81994311    -0.61700
N1202       N  0.95549739  0.93447555  0.75444438    -0.08000
N1203       N  0.92130830  0.92189080  0.74704066    -0.60700
N1204       N  0.53794740  0.94487041  0.81389906    -0.05700
N1205       N  0.54879486  0.92657165  0.86347171    -0.61800
Mn1206     Mn  0.50354209  0.49617875  0.80864159     1.18400
C1207       C  0.55779322  0.89205805  0.84247964     0.96500
C1208       C  0.90099435  0.94162964  0.78775661     0.97200
N1209       N  0.54011035  0.56967212  0.61383492    -0.08000
N1210       N  0.55278692  0.60275910  0.59819924    -0.64300
N1211       N  0.95577413  0.53238648  0.58231450    -0.06800
N1212       N  0.92209975  0.52713971  0.55968036    -0.65000
N1213       N  0.95556815  0.55805960  0.62558791    -0.07500
N1214       N  0.92144261  0.57092711  0.63251574    -0.64600
N1215       N  0.53807398  0.54756013  0.56660696    -0.06400
N1216       N  0.54904859  0.56586014  0.51711577    -0.65200
Mn1217     Mn  0.50355746  0.56465829  0.69036410     1.10700
C1218       C  0.55820267  0.60029752  0.53824906     0.97700
C1219       C  0.90116400  0.55134132  0.59154602     0.97800
N1220       N  0.96715353  0.92276035  0.61318166    -0.07500
N1221       N  0.95477183  0.88960342  0.59727578    -0.62900
N1222       N  0.55142579  0.96018074  0.58227499    -0.06800
N1223       N  0.58511228  0.96556126  0.55981554    -0.59600
N1224       N  0.55162916  0.93444029  0.62543810    -0.08100
N1225       N  0.58577735  0.92164728  0.63246067    -0.62400
N1226       N  0.96924712  0.94494406  0.56604640    -0.07100
N1227       N  0.95863596  0.92661140  0.51635834    -0.59600
Mn1228     Mn  0.00355896  0.92778751  0.68996883     1.20200
Mn1229     Mn  0.50361729  0.49628141  0.57168787     1.10100
Cl1230     Cl  0.50357850  0.49622574  0.69016537    -0.87600
C1231       C  0.94965450  0.89206369  0.53724916     0.94700
C1232       C  0.60605825  0.94136945  0.59165726     0.94500
loop_ 
_geom_bond_atom_site_label_1 
_geom_bond_atom_site_label_2 
_geom_bond_distance 
_geom_bond_site_symmetry_2 
_ccdc_geom_bond_type 
C1            N2   1.336       .  A
C1            N6   1.361       .  A
C1          C114   1.445       .  S
N2            C3   1.336       .  A
C3            N4   1.361       .  A
C3           C33   1.444       .  S
N4            C5   1.366       .  A
C5            N6   1.366       .  A
C5          C155   1.481       .  S
C7            N8   1.350       .  A
C7           N12   1.370   1_554  A
C7          C137   1.470       .  S
N8            C9   1.350       .  A
C9           N10   1.370   1_554  A
C9           C56   1.470       .  S
N10          C11   1.371       .  A
C11          N12   1.371       .  A
C11         C163   1.513       .  S
C13          N14   1.350       .  A
C13          N18   1.370       .  A
C13         C113   1.469       .  S
N14          C15   1.350       .  A
C15          N16   1.370       .  A
C15          C45   1.470       .  S
N16          C17   1.370       .  A
C17          N18   1.370       .  A
C17         C140   1.512       .  S
C19          N20   1.361       .  A
C19          N24   1.336       .  A
C19          C55   1.445       .  S
N20          C21   1.366       .  A
C21          N22   1.366       .  A
C21         C148   1.482       .  S
N22          C23   1.361       .  A
C23          N24   1.336       .  A
C23         C125   1.445       .  S
N25          N26   1.314       .  A
N25          N31   1.325       .  A
N25         Mn54   2.245       .  S
N26          C33   1.354       .  A
N27          N29   1.310       .  A
N27          N28   1.332       .  A
N27        Mn967   2.214   1_545  S
N28          C34   1.358       .  A
N29          N30   1.314       .  A
N29        Mn362   2.144   1_545  S
N30          C34   1.339       .  A
N31          N32   1.318       .  A
N31        Mn659   2.158       .  S
N32          C33   1.344       .  A
C34          C76   1.470       .  S
N35          N41   1.325       .  A
N35          N36   1.315       .  A
N35         Mn65   2.247   1_545  S
N36          C44   1.355       .  A
N37          N38   1.332       .  A
N37          N39   1.310       .  A
N37         Mn43   2.215       .  S
N38          C45   1.358       .  A
N39          N40   1.314       .  A
N39        Mn373   2.144       .  S
N40          C45   1.339       .  A
N41          N42   1.318       .  A
N41        Mn351   2.158   1_545  S
N42          C44   1.344       .  A
Mn43        N951   2.214   1_455  S
Mn43        N647   2.158   1_455  S
Mn43        N349   2.158       .  S
Mn43        Cl67   2.613       .  S
C44          C82   1.446       .  S
N46          N47   1.315       .  A
N46          N52   1.325       .  A
N46        Mn362   2.245   1_545  S
N47          C55   1.355       .  A
N48          N50   1.310       .  A
N48          N49   1.332       .  A
N48        Mn682   2.215       .  S
N49          C56   1.358       .  A
N50          N51   1.314       .  A
N50         Mn54   2.144       .  S
N51          C56   1.339       .  A
N52          N53   1.318       .  A
N52        Mn990   2.157   1_545  S
N53          C55   1.344       .  A
Mn54        N337   2.144       .  S
Mn54        N354   2.245       .  S
Mn54       Cl683   2.449       .  S
N57          N58   1.315       .  A
N57          N63   1.325       .  A
N57        Mn373   2.246       .  S
N58          C68   1.354       .  A
N59          N60   1.332       .  A
N59          N61   1.310       .  A
N59        Mn374   2.214   1_545  S
N60          C69   1.358       .  A
N61          N62   1.314       .  A
N61         Mn65   2.143   1_545  S
N62          C69   1.339       .  A
N63          N64   1.318       .  A
N63         Mn66   2.159       .  S
N64          C68   1.344       .  A
Mn65        N347   2.144       .  S
Mn65        N365   2.246       .  S
Mn65       Cl375   2.449       .  S
Mn66        N664   2.215   1_455  S
Mn66        N976   2.157   1_455  S
Mn66        N367   2.214       .  S
Mn66        Cl67   2.613       .  S
Cl67       Mn670   2.449   1_455  S
Cl67       Mn373   2.449       .  S
C68          C72   1.445       .  S
C69          C92   1.469       .  S
C70          N71   1.336       .  A
C70          N75   1.361       .  A
C70         C138   1.445       .  S
N71          C72   1.336       .  A
C72          N73   1.361       .  A
N73          C74   1.366       .  A
C74          N75   1.366       .  A
C74         C150   1.482       .  S
C76          N77   1.350       .  A
C76          N81   1.370       .  A
N77          C78   1.350       .  A
C78          N79   1.370       .  A
C78         C102   1.470       .  S
N79          C80   1.370       .  A
C80          N81   1.370       .  A
C80         C142   1.512       .  S
C82          N83   1.362       .  A
C82          N87   1.337       .  A
N83          C84   1.366       .  A
C84          N85   1.366       .  A
C84         C159   1.484       .  S
N85          C86   1.362       .  A
C86          N87   1.337       .  A
C86         C103   1.446       .  S
C88          N89   1.369   1_554  A
C88          N93   1.350       .  A
C88         C124   1.469       .  S
N89          C90   1.370       .  A
C90          N91   1.370       .  A
C90         C167   1.510       .  S
N91          C92   1.369   1_556  A
C92          N93   1.350       .  A
N94          N95   1.314       .  A
N94         N100   1.310       .  A
N94        Mn123   2.144       .  S
N95         C102   1.339       .  A
N96          N98   1.325       .  A
N96          N97   1.318       .  A
N96        Mn112   2.158       .  S
N97         C103   1.344       .  A
N98          N99   1.315       .  A
N98        Mn123   2.248       .  S
N99         C103   1.355       .  A
N100        N101   1.332       .  A
N100       Mn112   2.215       .  S
N101        C102   1.358       .  A
N104        N110   1.310       .  A
N104        N105   1.314       .  A
N104       Mn134   2.144       .  S
N105        C113   1.339       .  A
N106        N107   1.318       .  A
N106        N108   1.325       .  A
N106       Mn112   2.158       .  S
N107        C114   1.344       .  A
N108        N109   1.314       .  A
N108       Mn134   2.245       .  S
N109        C114   1.354       .  A
N110        N111   1.332       .  A
N110       Mn112   2.214       .  S
N111        C113   1.358       .  A
Mn112      Cl136   2.613       .  S
N115        N116   1.314       .  A
N115        N121   1.310       .  A
N115       Mn123   2.143       .  S
N116        C124   1.339       .  A
N117        N119   1.325       .  A
N117        N118   1.318       .  A
N117       Mn135   2.158       .  S
N118        C125   1.344       .  A
N119        N120   1.315       .  A
N119       Mn123   2.247       .  S
N120        C125   1.355       .  A
N121        N122   1.332       .  A
N121       Mn135   2.214       .  S
N122        C124   1.358       .  A
Mn123      Cl136   2.449       .  S
N126        N127   1.314       .  A
N126        N132   1.310       .  A
N126       Mn134   2.144       .  S
N127        C137   1.339       .  A
N128        N129   1.318       .  A
N128        N130   1.325       .  A
N128       Mn135   2.157       .  S
N129        C138   1.344       .  A
N130        N131   1.315       .  A
N130       Mn134   2.246       .  S
N131        C138   1.355       .  A
N132        N133   1.332       .  A
N132       Mn135   2.215       .  S
N133        C137   1.358       .  A
Mn134      Cl136   2.449       .  S
Mn135      Cl136   2.613       .  S
C139        C262   1.482       .  S
C139        C140   1.412       .  A
C139        C144   1.408       .  A
C140        C141   1.432       .  A
C141        C450   1.432       .  A
C141        H146   1.083       .  S
C142        C143   1.412       .  A
C142        C449   1.432   1_545  A
C143        C205   1.482       .  S
C143        C452   1.408   1_545  A
C144        C451   1.408       .  A
C144        H145   1.085       .  S
C147        C181   1.512       .  S
C147        C148   1.412   1_556  A
C147        C152   1.432       .  A
C148        C149   1.408       .  A
C149        C766   1.408       .  A
C149        H154   1.085       .  S
C150        C151   1.412   1_554  A
C150        C765   1.408       .  A
C151        C193   1.512       .  S
C151        C768   1.432       .  A
C152        C767   1.432       .  A
C152        H153   1.083       .  S
C155        C156   1.412       .  A
C155        C776   1.408       .  A
C156        C254   1.513       .  S
C156        C773   1.432       .  A
C157        C158   1.433       .  A
C157        C772   1.432   1_455  A
C157        H162   1.083       .  S
C158        C199   1.510       .  S
C158        C159   1.411       .  A
C159        C160   1.408       .  A
C160        C771   1.408   1_455  A
C160        H161   1.085       .  S
C163        C164   1.412       .  A
C163        C168   1.432       .  A
C164        C175   1.481       .  S
C164        C165   1.408       .  A
C165        C474   1.408       .  A
C165        H170   1.085       .  S
C166        C187   1.484       .  S
C166        C167   1.411       .  A
C166        C473   1.408   1_545  A
C167        C476   1.433   1_545  A
C168        C475   1.433       .  A
C168        H169   1.083   1_556  S
C171        N172   1.336       .  A
C171        N176   1.361       .  A
C171        C215   1.444       .  S
N172        C173   1.336       .  A
C173        N174   1.361       .  A
C173        C284   1.445       .  S
N174        C175   1.366       .  A
C175        N176   1.366       .  A
C177        N178   1.350       .  A
C177        N182   1.370       .  A
C177        C216   1.470       .  S
N178        C179   1.350       .  A
C179        N180   1.370       .  A
C179        C272   1.470       .  S
N180        C181   1.370       .  A
C181        N182   1.370       .  A
C183        N184   1.337       .  A
C183        N188   1.362       .  A
C183        C273   1.446       .  S
N184        C185   1.337       .  A
C185        N186   1.362       .  A
C185        C226   1.446       .  S
N186        C187   1.366       .  A
C187        N188   1.366       .  A
C189        N190   1.350       .  A
C189        N194   1.370       .  A
C189        C283   1.469       .  S
N190        C191   1.350       .  A
C191        N192   1.370       .  A
C191        C227   1.470       .  S
N192        C193   1.370       .  A
C193        N194   1.370       .  A
C195        N196   1.350       .  A
C195        N200   1.369       .  A
C195        C251   1.469       .  S
N196        C197   1.350       .  A
C197        N198   1.369       .  A
C197        C294   1.469       .  S
N198        C199   1.370       .  A
C199        N200   1.370       .  A
C201        N202   1.336       .  A
C201        N206   1.361       .  A
C201        C237   1.445       .  S
N202        C203   1.336       .  A
C203        N204   1.361       .  A
C203        C295   1.445       .  S
N204        C205   1.366       .  A
C205        N206   1.366       .  A
N207        N208   1.314       .  A
N207        N213   1.325       .  A
N207       Mn236   2.245       .  S
N208        C215   1.354       .  A
N209        N211   1.310       .  A
N209        N210   1.332       .  A
N209       Mn225   2.214       .  S
N210        C216   1.358       .  A
N211        N212   1.314       .  A
N211       Mn236   2.144       .  S
N212        C216   1.339       .  A
N213        N214   1.318       .  A
N213       Mn225   2.158       .  S
N214        C215   1.344       .  A
N217        N223   1.325       .  A
N217        N218   1.315       .  A
N217       Mn247   2.247       .  S
N218        C226   1.355       .  A
N219        N220   1.332       .  A
N219        N221   1.310       .  A
N219       Mn225   2.215       .  S
N220        C227   1.358       .  A
N221        N222   1.314       .  A
N221       Mn247   2.144       .  S
N222        C227   1.339       .  A
N223        N224   1.318       .  A
N223       Mn225   2.158       .  S
N224        C226   1.344       .  A
Mn225      Cl249   2.613       .  S
N228        N229   1.315       .  A
N228        N234   1.325       .  A
N228       Mn236   2.245       .  S
N229        C237   1.355       .  A
N230        N232   1.310       .  A
N230        N231   1.332       .  A
N230       Mn248   2.215       .  S
N231        C238   1.358       .  A
N232        N233   1.314       .  A
N232       Mn236   2.144       .  S
N233        C238   1.339       .  A
N234        N235   1.318       .  A
N234       Mn248   2.157       .  S
N235        C237   1.344       .  A
Mn236      Cl249   2.449       .  S
C238        C252   1.470       .  S
N239        N240   1.315       .  A
N239        N245   1.325       .  A
N239       Mn247   2.246       .  S
N240        C250   1.354       .  A
N241        N242   1.332       .  A
N241        N243   1.310       .  A
N241       Mn248   2.214       .  S
N242        C251   1.358       .  A
N243        N244   1.314       .  A
N243       Mn247   2.143       .  S
N244        C251   1.339       .  A
N245        N246   1.318       .  A
N245       Mn248   2.159       .  S
N246        C250   1.344       .  A
Mn247      Cl249   2.449       .  S
Mn248      Cl249   2.613       .  S
C250        C260   1.445       .  S
C252        N253   1.370       .  A
C252        N257   1.350       .  A
N253        C254   1.371       .  A
C254        N255   1.371       .  A
N255        C256   1.370       .  A
C256        N257   1.350       .  A
C256        C307   1.470       .  S
C258        N259   1.336       .  A
C258        N263   1.361       .  A
C258        C308   1.445       .  S
N259        C260   1.336       .  A
C260        N261   1.361       .  A
N261        C262   1.366       .  A
C262        N263   1.366       .  A
N264        N265   1.314       .  A
N264        N270   1.310       .  A
N264       Mn909   2.144       .  S
N265        C272   1.339       .  A
N266        N268   1.325       .  A
N266        N267   1.318       .  A
N266       Mn282   2.158   1_545  S
N267        C273   1.344       .  A
N268        N269   1.315       .  A
N268       Mn293   2.248       .  S
N269        C273   1.355       .  A
N270        N271   1.332       .  A
N270       Mn898   2.215   1_545  S
N271        C272   1.358       .  A
N274        N280   1.310       .  A
N274        N275   1.314       .  A
N274       Mn920   2.144       .  S
N275        C283   1.339       .  A
N276        N277   1.318       .  A
N276        N278   1.325       .  A
N276      Mn1206   2.158       .  S
N277        C284   1.344       .  A
N278        N279   1.314       .  A
N278       Mn304   2.245       .  S
N279        C284   1.354       .  A
N280        N281   1.332       .  A
N280       Mn590   2.214       .  S
N281        C283   1.358       .  A
Mn282       N886   2.215   1_465  S
Mn282      N1200   2.158   1_455  S
Mn282       N588   2.214       .  S
Mn282      Cl306   2.613       .  S
N285        N286   1.314       .  A
N285        N291   1.310       .  A
N285       Mn293   2.143       .  S
N286        C294   1.339       .  A
N287        N289   1.325       .  A
N287        N288   1.318       .  A
N287       Mn921   2.158   1_545  S
N288        C295   1.344       .  A
N289        N290   1.315       .  A
N289       Mn909   2.247       .  S
N290        C295   1.355       .  A
N291        N292   1.332       .  A
N291       Mn305   2.214   1_545  S
N292        C294   1.358       .  A
Mn293       N880   2.144   1_455  S
Mn293       N905   2.247   1_455  S
Mn293      Cl306   2.449   1_545  S
N296        N297   1.314       .  A
N296        N302   1.310       .  A
N296       Mn304   2.144       .  S
N297        C307   1.339       .  A
N298        N299   1.318       .  A
N298        N300   1.325       .  A
N298       Mn613   2.157       .  S
N299        C308   1.344       .  A
N300        N301   1.315       .  A
N300       Mn920   2.246       .  S
N301        C308   1.355       .  A
N302        N303   1.332       .  A
N302      Mn1229   2.215       .  S
N303        C307   1.358       .  A
Mn304       N890   2.144       .  S
Mn304       N916   2.246       .  S
Mn304     Cl1230   2.449       .  S
Mn305       N903   2.158   1_465  S
Mn305       N606   2.157       .  S
Mn305      N1226   2.215   1_455  S
Mn305      Cl306   2.613       .  S
Cl306     Mn1228   2.449       .  S
C309        N310   1.336       .  A
C309        N314   1.361       .  A
C309        C422   1.445       .  S
N310        C311   1.336       .  A
C311        N312   1.361       .  A
C311        C341   1.444       .  S
N312        C313   1.366       .  A
C313        N314   1.366       .  A
C313        C463   1.481       .  S
C315        N316   1.350       .  A
C315        N320   1.370   1_554  A
C315        C445   1.470       .  S
N316        C317   1.350       .  A
C317        N318   1.370   1_554  A
C317        C364   1.470       .  S
N318        C319   1.371       .  A
C319        N320   1.371       .  A
C319        C471   1.513       .  S
C321        N322   1.350       .  A
C321        N326   1.370       .  A
C321        C421   1.469       .  S
N322        C323   1.350       .  A
C323        N324   1.370       .  A
C323        C353   1.470       .  S
N324        C325   1.370       .  A
C325        N326   1.370       .  A
C325        C448   1.512       .  S
C327        N328   1.361       .  A
C327        N332   1.336       .  A
C327        C363   1.445       .  S
N328        C329   1.366       .  A
C329        N330   1.366       .  A
C329        C456   1.482       .  S
N330        C331   1.361       .  A
C331        N332   1.336       .  A
C331        C433   1.445       .  S
N333        N334   1.314       .  A
N333        N339   1.325       .  A
N333       Mn362   2.245       .  S
N334        C341   1.354       .  A
N335        N337   1.310       .  A
N335        N336   1.332       .  A
N335       Mn659   2.214       .  S
N336        C342   1.358       .  A
N337        N338   1.314       .  A
N338        C342   1.339       .  A
N339        N340   1.318       .  A
N339       Mn967   2.158       .  S
N340        C341   1.344       .  A
C342        C384   1.470       .  S
N343        N349   1.325       .  A
N343        N344   1.315       .  A
N343       Mn373   2.247       .  S
N344        C352   1.355       .  A
N345        N346   1.332       .  A
N345        N347   1.310       .  A
N345       Mn351   2.215       .  S
N346        C353   1.358       .  A
N347        N348   1.314       .  A
N348        C353   1.339       .  A
N349        N350   1.318       .  A
N350        C352   1.344       .  A
Mn351       N643   2.214   1_465  S
Mn351       N955   2.158   1_455  S
Mn351      Cl375   2.613       .  S
C352        C390   1.446       .  S
N354        N355   1.315       .  A
N354        N360   1.325       .  A
N355        C363   1.355       .  A
N356        N358   1.310       .  A
N356        N357   1.332       .  A
N356       Mn990   2.215       .  S
N357        C364   1.358       .  A
N358        N359   1.314       .  A
N358       Mn362   2.144       .  S
N359        C364   1.339       .  A
N360        N361   1.318       .  A
N360       Mn682   2.157       .  S
N361        C363   1.344       .  A
Mn362      Cl991   2.449       .  S
N365        N366   1.315       .  A
N365        N371   1.325       .  A
N366        C376   1.354       .  A
N367        N368   1.332       .  A
N367        N369   1.310       .  A
N368        C377   1.358       .  A
N369        N370   1.314       .  A
N369       Mn373   2.143       .  S
N370        C377   1.339       .  A
N371        N372   1.318       .  A
N371       Mn374   2.159       .  S
N372        C376   1.344       .  A
Mn374       N972   2.215   1_455  S
Mn374       N668   2.157   1_465  S
Mn374      Cl375   2.613       .  S
Cl375      Mn978   2.449   1_455  S
C376        C380   1.445       .  S
C377        C400   1.469       .  S
C378        N379   1.336       .  A
C378        N383   1.361       .  A
C378        C446   1.445       .  S
N379        C380   1.336       .  A
C380        N381   1.361       .  A
N381        C382   1.366       .  A
C382        N383   1.366       .  A
C382        C458   1.482       .  S
C384        N385   1.350       .  A
C384        N389   1.370       .  A
N385        C386   1.350       .  A
C386        N387   1.370       .  A
C386        C410   1.470       .  S
N387        C388   1.370       .  A
C388        N389   1.370       .  A
C388        C450   1.512       .  S
C390        N391   1.362       .  A
C390        N395   1.337       .  A
N391        C392   1.366       .  A
C392        N393   1.366       .  A
C392        C467   1.484       .  S
N393        C394   1.362       .  A
C394        N395   1.337       .  A
C394        C411   1.446       .  S
C396        N397   1.369   1_554  A
C396        N401   1.350       .  A
C396        C432   1.469       .  S
N397        C398   1.370       .  A
C398        N399   1.370       .  A
C398        C475   1.510       .  S
N399        C400   1.369   1_556  A
C400        N401   1.350       .  A
N402        N403   1.314       .  A
N402        N408   1.310       .  A
N402       Mn431   2.144       .  S
N403        C410   1.339       .  A
N404        N406   1.325       .  A
N404        N405   1.318       .  A
N404       Mn420   2.158       .  S
N405        C411   1.344       .  A
N406        N407   1.315       .  A
N406       Mn431   2.248       .  S
N407        C411   1.355       .  A
N408        N409   1.332       .  A
N408       Mn420   2.215       .  S
N409        C410   1.358       .  A
N412        N418   1.310       .  A
N412        N413   1.314       .  A
N412       Mn442   2.144       .  S
N413        C421   1.339       .  A
N414        N415   1.318       .  A
N414        N416   1.325       .  A
N414       Mn420   2.158       .  S
N415        C422   1.344       .  A
N416        N417   1.314       .  A
N416       Mn442   2.245       .  S
N417        C422   1.354       .  A
N418        N419   1.332       .  A
N418       Mn420   2.214       .  S
N419        C421   1.358       .  A
Mn420      Cl444   2.613       .  S
N423        N424   1.314       .  A
N423        N429   1.310       .  A
N423       Mn431   2.143       .  S
N424        C432   1.339       .  A
N425        N427   1.325       .  A
N425        N426   1.318       .  A
N425       Mn443   2.158       .  S
N426        C433   1.344       .  A
N427        N428   1.315       .  A
N427       Mn431   2.247       .  S
N428        C433   1.355       .  A
N429        N430   1.332       .  A
N429       Mn443   2.214       .  S
N430        C432   1.358       .  A
Mn431      Cl444   2.449       .  S
N434        N435   1.314       .  A
N434        N440   1.310       .  A
N434       Mn442   2.144       .  S
N435        C445   1.339       .  A
N436        N437   1.318       .  A
N436        N438   1.325       .  A
N436       Mn443   2.157       .  S
N437        C446   1.344       .  A
N438        N439   1.315       .  A
N438       Mn442   2.246       .  S
N439        C446   1.355       .  A
N440        N441   1.332       .  A
N440       Mn443   2.215       .  S
N441        C445   1.358       .  A
Mn442      Cl444   2.449       .  S
Mn443      Cl444   2.613       .  S
C447        C570   1.482       .  S
C447        C448   1.412       .  A
C447        C452   1.408       .  A
C448        C449   1.432       .  A
C449        H454   1.083       .  S
C450        C451   1.412       .  A
C451        C513   1.482       .  S
C452        H453   1.085       .  S
C455        C489   1.512       .  S
C455        C456   1.412   1_556  A
C455        C460   1.432       .  A
C456        C457   1.408       .  A
C457       C1074   1.408       .  A
C457        H462   1.085       .  S
C458       C1073   1.408       .  A
C458        C459   1.412   1_554  A
C459        C501   1.512       .  S
C459       C1076   1.432       .  A
C460       C1075   1.432       .  A
C460        H461   1.083       .  S
C463        C464   1.412       .  A
C463       C1084   1.408       .  A
C464        C562   1.513       .  S
C464       C1081   1.432       .  A
C465       C1080   1.432   1_455  A
C465        C466   1.433       .  A
C465        H470   1.083       .  S
C466        C507   1.510       .  S
C466        C467   1.411       .  A
C467        C468   1.408       .  A
C468       C1079   1.408   1_455  A
C468        H469   1.085       .  S
C471        C472   1.412       .  A
C471        C476   1.432       .  A
C472        C483   1.481       .  S
C472        C473   1.408       .  A
C473        H478   1.085       .  S
C474        C495   1.484       .  S
C474        C475   1.411       .  A
C476        H477   1.083   1_556  S
C479        N480   1.336       .  A
C479        N484   1.361       .  A
C479        C523   1.444       .  S
N480        C481   1.336       .  A
C481        N482   1.361       .  A
C481        C592   1.445       .  S
N482        C483   1.366       .  A
C483        N484   1.366       .  A
C485        N486   1.350       .  A
C485        N490   1.370       .  A
C485        C524   1.470       .  S
N486        C487   1.350       .  A
C487        N488   1.370       .  A
C487        C580   1.470       .  S
N488        C489   1.370       .  A
C489        N490   1.370       .  A
C491        N492   1.337       .  A
C491        N496   1.362       .  A
C491        C581   1.446       .  S
N492        C493   1.337       .  A
C493        N494   1.362       .  A
C493        C534   1.446       .  S
N494        C495   1.366       .  A
C495        N496   1.366       .  A
C497        N498   1.350       .  A
C497        N502   1.370       .  A
C497        C591   1.469       .  S
N498        C499   1.350       .  A
C499        N500   1.370       .  A
C499        C535   1.470       .  S
N500        C501   1.370       .  A
C501        N502   1.370       .  A
C503        N504   1.350       .  A
C503        N508   1.369       .  A
C503        C559   1.469       .  S
N504        C505   1.350       .  A
C505        N506   1.369       .  A
C505        C602   1.469       .  S
N506        C507   1.370       .  A
C507        N508   1.370       .  A
C509        N510   1.336       .  A
C509        N514   1.361       .  A
C509        C545   1.445       .  S
N510        C511   1.336       .  A
C511        N512   1.361       .  A
C511        C603   1.445       .  S
N512        C513   1.366       .  A
C513        N514   1.366       .  A
N515        N516   1.314       .  A
N515        N521   1.325       .  A
N515       Mn544   2.245       .  S
N516        C523   1.354       .  A
N517        N519   1.310       .  A
N517        N518   1.332       .  A
N517       Mn533   2.214       .  S
N518        C524   1.358       .  A
N519        N520   1.314       .  A
N519       Mn544   2.144       .  S
N520        C524   1.339       .  A
N521        N522   1.318       .  A
N521       Mn533   2.158       .  S
N522        C523   1.344       .  A
N525        N531   1.325       .  A
N525        N526   1.315       .  A
N525       Mn555   2.247       .  S
N526        C534   1.355       .  A
N527        N528   1.332       .  A
N527        N529   1.310       .  A
N527       Mn533   2.215       .  S
N528        C535   1.358       .  A
N529        N530   1.314       .  A
N529       Mn555   2.144       .  S
N530        C535   1.339       .  A
N531        N532   1.318       .  A
N531       Mn533   2.158       .  S
N532        C534   1.344       .  A
Mn533      Cl557   2.613       .  S
N536        N537   1.315       .  A
N536        N542   1.325       .  A
N536       Mn544   2.245       .  S
N537        C545   1.355       .  A
N538        N540   1.310       .  A
N538        N539   1.332       .  A
N538       Mn556   2.215       .  S
N539        C546   1.358       .  A
N540        N541   1.314       .  A
N540       Mn544   2.144       .  S
N541        C546   1.339       .  A
N542        N543   1.318       .  A
N542       Mn556   2.157       .  S
N543        C545   1.344       .  A
Mn544      Cl557   2.449       .  S
C546        C560   1.470       .  S
N547        N548   1.315       .  A
N547        N553   1.325       .  A
N547       Mn555   2.246       .  S
N548        C558   1.354       .  A
N549        N550   1.332       .  A
N549        N551   1.310       .  A
N549       Mn556   2.214       .  S
N550        C559   1.358       .  A
N551        N552   1.314       .  A
N551       Mn555   2.143       .  S
N552        C559   1.339       .  A
N553        N554   1.318       .  A
N553       Mn556   2.159       .  S
N554        C558   1.344       .  A
Mn555      Cl557   2.449       .  S
Mn556      Cl557   2.613       .  S
C558        C568   1.445       .  S
C560        N561   1.370       .  A
C560        N565   1.350       .  A
N561        C562   1.371       .  A
C562        N563   1.371       .  A
N563        C564   1.370       .  A
C564        N565   1.350       .  A
C564        C615   1.470       .  S
C566        N567   1.336       .  A
C566        N571   1.361       .  A
C566        C616   1.445       .  S
N567        C568   1.336       .  A
C568        N569   1.361       .  A
N569        C570   1.366       .  A
C570        N571   1.366       .  A
N572        N573   1.314       .  A
N572        N578   1.310       .  A
N572      Mn1217   2.144       .  S
N573        C580   1.339       .  A
N574        N576   1.325       .  A
N574        N575   1.318       .  A
N574       Mn590   2.158       .  S
N575        C581   1.344       .  A
N576        N577   1.315       .  A
N576       Mn601   2.248       .  S
N577        C581   1.355       .  A
N578        N579   1.332       .  A
N578      Mn1206   2.215       .  S
N579        C580   1.358       .  A
N582        N588   1.310       .  A
N582        N583   1.314       .  A
N582      Mn1228   2.144       .  S
N583        C591   1.339       .  A
N584        N585   1.318       .  A
N584        N586   1.325       .  A
N584       Mn898   2.158       .  S
N585        C592   1.344       .  A
N586        N587   1.314       .  A
N586       Mn612   2.245       .  S
N587        C592   1.354       .  A
N588        N589   1.332       .  A
N589        C591   1.358       .  A
Mn590      N1194   2.215   1_455  S
Mn590       N892   2.158   1_455  S
Mn590      Cl614   2.613       .  S
N593        N594   1.314       .  A
N593        N599   1.310       .  A
N593       Mn601   2.143       .  S
N594        C602   1.339       .  A
N595        N597   1.325       .  A
N595        N596   1.318       .  A
N595      Mn1229   2.158       .  S
N596        C603   1.344       .  A
N597        N598   1.315       .  A
N597      Mn1217   2.247       .  S
N598        C603   1.355       .  A
N599        N600   1.332       .  A
N599       Mn613   2.214       .  S
N600        C602   1.358       .  A
Mn601      N1188   2.144   1_455  S
Mn601      N1213   2.247   1_455  S
Mn601      Cl614   2.449       .  S
N604        N605   1.314       .  A
N604        N610   1.310       .  A
N604       Mn612   2.144       .  S
N605        C615   1.339       .  A
N606        N607   1.318       .  A
N606        N608   1.325       .  A
N607        C616   1.344       .  A
N608        N609   1.315       .  A
N608      Mn1228   2.246       .  S
N609        C616   1.355       .  A
N610        N611   1.332       .  A
N610       Mn921   2.215       .  S
N611        C615   1.358       .  A
Mn612      N1198   2.144       .  S
Mn612      N1224   2.246       .  S
Mn612      Cl922   2.449       .  S
Mn613      N1211   2.158   1_455  S
Mn613       N918   2.215   1_455  S
Mn613      Cl614   2.613       .  S
Cl614      Mn920   2.449       .  S
C617        N618   1.336       .  A
C617        N622   1.361       .  A
C617        C730   1.445       .  S
N618        C619   1.336       .  A
C619        N620   1.361       .  A
C619        C649   1.444       .  S
N620        C621   1.366       .  A
C621        N622   1.366       .  A
C621        C771   1.481       .  S
C623        N624   1.350       .  A
C623        N628   1.370   1_554  A
C623        C753   1.470       .  S
N624        C625   1.350       .  A
C625        N626   1.370   1_554  A
C625        C672   1.470       .  S
N626        C627   1.371       .  A
C627        N628   1.371       .  A
C627        C779   1.513       .  S
C629        N630   1.350       .  A
C629        N634   1.370       .  A
C629        C729   1.469       .  S
N630        C631   1.350       .  A
C631        N632   1.370       .  A
C631        C661   1.470       .  S
N632        C633   1.370       .  A
C633        N634   1.370       .  A
C633        C756   1.512       .  S
C635        N636   1.361       .  A
C635        N640   1.336       .  A
C635        C671   1.445       .  S
N636        C637   1.366       .  A
C637        N638   1.366       .  A
C637        C764   1.482       .  S
N638        C639   1.361       .  A
C639        N640   1.336       .  A
C639        C741   1.445       .  S
N641        N642   1.314       .  A
N641        N647   1.325       .  A
N641       Mn670   2.245       .  S
N642        C649   1.354       .  A
N643        N645   1.310       .  A
N643        N644   1.332       .  A
N644        C650   1.358       .  A
N645        N646   1.314       .  A
N645       Mn978   2.144   1_545  S
N646        C650   1.339       .  A
N647        N648   1.318       .  A
N648        C649   1.344       .  A
C650        C692   1.470       .  S
N651        N657   1.325       .  A
N651        N652   1.315       .  A
N651       Mn681   2.247   1_545  S
N652        C660   1.355       .  A
N653        N654   1.332       .  A
N653        N655   1.310       .  A
N653       Mn659   2.215       .  S
N654        C661   1.358       .  A
N655        N656   1.314       .  A
N655       Mn989   2.144       .  S
N656        C661   1.339       .  A
N657        N658   1.318       .  A
N657       Mn967   2.158   1_545  S
N658        C660   1.344       .  A
Mn659       N965   2.158       .  S
Mn659      Cl683   2.613       .  S
C660        C698   1.446       .  S
N662        N663   1.315       .  A
N662        N668   1.325       .  A
N662       Mn978   2.245   1_545  S
N663        C671   1.355       .  A
N664        N666   1.310       .  A
N664        N665   1.332       .  A
N665        C672   1.358       .  A
N666        N667   1.314       .  A
N666       Mn670   2.144       .  S
N667        C672   1.339       .  A
N668        N669   1.318       .  A
N669        C671   1.344       .  A
Mn670       N953   2.144       .  S
Mn670       N970   2.245       .  S
N673        N674   1.315       .  A
N673        N679   1.325       .  A
N673       Mn989   2.246       .  S
N674        C684   1.354       .  A
N675        N676   1.332       .  A
N675        N677   1.310       .  A
N675       Mn990   2.214   1_545  S
N676        C685   1.358       .  A
N677        N678   1.314       .  A
N677       Mn681   2.143   1_545  S
N678        C685   1.339       .  A
N679        N680   1.318       .  A
N679       Mn682   2.159       .  S
N680        C684   1.344       .  A
Mn681       N963   2.144       .  S
Mn681       N981   2.246       .  S
Mn681      Cl991   2.449       .  S
Mn682       N983   2.214       .  S
Mn682      Cl683   2.613       .  S
Cl683      Mn989   2.449       .  S
C684        C688   1.445       .  S
C685        C708   1.469       .  S
C686        N687   1.336       .  A
C686        N691   1.361       .  A
C686        C754   1.445       .  S
N687        C688   1.336       .  A
C688        N689   1.361       .  A
N689        C690   1.366       .  A
C690        N691   1.366       .  A
C690        C766   1.482       .  S
C692        N693   1.350       .  A
C692        N697   1.370       .  A
N693        C694   1.350       .  A
C694        N695   1.370       .  A
C694        C718   1.470       .  S
N695        C696   1.370       .  A
C696        N697   1.370       .  A
C696        C758   1.512       .  S
C698        N699   1.362       .  A
C698        N703   1.337       .  A
N699        C700   1.366       .  A
C700        N701   1.366       .  A
C700        C775   1.484       .  S
N701        C702   1.362       .  A
C702        N703   1.337       .  A
C702        C719   1.446       .  S
C704        N705   1.369   1_554  A
C704        N709   1.350       .  A
C704        C740   1.469       .  S
N705        C706   1.370       .  A
C706        N707   1.370       .  A
C706        C783   1.510       .  S
N707        C708   1.369   1_556  A
C708        N709   1.350       .  A
N710        N711   1.314       .  A
N710        N716   1.310       .  A
N710       Mn739   2.144       .  S
N711        C718   1.339       .  A
N712        N714   1.325       .  A
N712        N713   1.318       .  A
N712       Mn728   2.158       .  S
N713        C719   1.344       .  A
N714        N715   1.315       .  A
N714       Mn739   2.248       .  S
N715        C719   1.355       .  A
N716        N717   1.332       .  A
N716       Mn728   2.215       .  S
N717        C718   1.358       .  A
N720        N726   1.310       .  A
N720        N721   1.314       .  A
N720       Mn750   2.144       .  S
N721        C729   1.339       .  A
N722        N723   1.318       .  A
N722        N724   1.325       .  A
N722       Mn728   2.158       .  S
N723        C730   1.344       .  A
N724        N725   1.314       .  A
N724       Mn750   2.245       .  S
N725        C730   1.354       .  A
N726        N727   1.332       .  A
N726       Mn728   2.214       .  S
N727        C729   1.358       .  A
Mn728      Cl752   2.613       .  S
N731        N732   1.314       .  A
N731        N737   1.310       .  A
N731       Mn739   2.143       .  S
N732        C740   1.339       .  A
N733        N735   1.325       .  A
N733        N734   1.318       .  A
N733       Mn751   2.158       .  S
N734        C741   1.344       .  A
N735        N736   1.315       .  A
N735       Mn739   2.247       .  S
N736        C741   1.355       .  A
N737        N738   1.332       .  A
N737       Mn751   2.214       .  S
N738        C740   1.358       .  A
Mn739      Cl752   2.449       .  S
N742        N743   1.314       .  A
N742        N748   1.310       .  A
N742       Mn750   2.144       .  S
N743        C753   1.339       .  A
N744        N745   1.318       .  A
N744        N746   1.325       .  A
N744       Mn751   2.157       .  S
N745        C754   1.344       .  A
N746        N747   1.315       .  A
N746       Mn750   2.246       .  S
N747        C754   1.355       .  A
N748        N749   1.332       .  A
N748       Mn751   2.215       .  S
N749        C753   1.358       .  A
Mn750      Cl752   2.449       .  S
Mn751      Cl752   2.613       .  S
C755        C878   1.482       .  S
C755        C756   1.412       .  A
C755        C760   1.408       .  A
C756        C757   1.432       .  A
C757       C1066   1.432       .  A
C757        H762   1.083       .  S
C758       C1065   1.432   1_545  A
C758        C759   1.412       .  A
C759        C821   1.482       .  S
C759       C1068   1.408   1_545  A
C760       C1067   1.408       .  A
C760        H761   1.085       .  S
C763        C797   1.512       .  S
C763        C764   1.412   1_556  A
C763        C768   1.432   1_655  A
C764        C765   1.408   1_655  A
C765        H770   1.085       .  S
C766        C767   1.412   1_554  A
C767        C809   1.512       .  S
C768        H769   1.083       .  S
C771        C772   1.412       .  A
C772        C870   1.513       .  S
C773        C774   1.433       .  A
C773        H778   1.083       .  S
C774        C815   1.510       .  S
C774        C775   1.411       .  A
C775        C776   1.408       .  A
C776        H777   1.085       .  S
C779        C780   1.412       .  A
C779        C784   1.432       .  A
C780        C791   1.481       .  S
C780        C781   1.408       .  A
C781       C1090   1.408       .  A
C781        H786   1.085       .  S
C782        C803   1.484       .  S
C782       C1089   1.408   1_545  A
C782        C783   1.411       .  A
C783       C1092   1.433   1_545  A
C784       C1091   1.433       .  A
C784        H785   1.083   1_556  S
C787        N788   1.336       .  A
C787        N792   1.361       .  A
C787        C831   1.444       .  S
N788        C789   1.336       .  A
C789        N790   1.361       .  A
C789        C900   1.445       .  S
N790        C791   1.366       .  A
C791        N792   1.366       .  A
C793        N794   1.350       .  A
C793        N798   1.370       .  A
C793        C832   1.470       .  S
N794        C795   1.350       .  A
C795        N796   1.370       .  A
C795        C888   1.470       .  S
N796        C797   1.370       .  A
C797        N798   1.370       .  A
C799        N800   1.337       .  A
C799        N804   1.362       .  A
C799        C889   1.446       .  S
N800        C801   1.337       .  A
C801        N802   1.362       .  A
C801        C842   1.446       .  S
N802        C803   1.366       .  A
C803        N804   1.366       .  A
C805        N806   1.350       .  A
C805        N810   1.370       .  A
C805        C899   1.469       .  S
N806        C807   1.350       .  A
C807        N808   1.370       .  A
C807        C843   1.470       .  S
N808        C809   1.370       .  A
C809        N810   1.370       .  A
C811        N812   1.350       .  A
C811        N816   1.369       .  A
C811        C867   1.469       .  S
N812        C813   1.350       .  A
C813        N814   1.369       .  A
C813        C910   1.469       .  S
N814        C815   1.370       .  A
C815        N816   1.370       .  A
C817        N818   1.336       .  A
C817        N822   1.361       .  A
C817        C853   1.445       .  S
N818        C819   1.336       .  A
C819        N820   1.361       .  A
C819        C911   1.445       .  S
N820        C821   1.366       .  A
C821        N822   1.366       .  A
N823        N824   1.314       .  A
N823        N829   1.325       .  A
N823       Mn852   2.245       .  S
N824        C831   1.354       .  A
N825        N827   1.310       .  A
N825        N826   1.332       .  A
N825       Mn841   2.214       .  S
N826        C832   1.358       .  A
N827        N828   1.314       .  A
N827       Mn852   2.144       .  S
N828        C832   1.339       .  A
N829        N830   1.318       .  A
N829       Mn841   2.158       .  S
N830        C831   1.344       .  A
N833        N839   1.325       .  A
N833        N834   1.315       .  A
N833       Mn863   2.247       .  S
N834        C842   1.355       .  A
N835        N836   1.332       .  A
N835        N837   1.310       .  A
N835       Mn841   2.215       .  S
N836        C843   1.358       .  A
N837        N838   1.314       .  A
N837       Mn863   2.144       .  S
N838        C843   1.339       .  A
N839        N840   1.318       .  A
N839       Mn841   2.158       .  S
N840        C842   1.344       .  A
Mn841      Cl865   2.613       .  S
N844        N845   1.315       .  A
N844        N850   1.325       .  A
N844       Mn852   2.245       .  S
N845        C853   1.355       .  A
N846        N848   1.310       .  A
N846        N847   1.332       .  A
N846       Mn864   2.215       .  S
N847        C854   1.358       .  A
N848        N849   1.314       .  A
N848       Mn852   2.144       .  S
N849        C854   1.339       .  A
N850        N851   1.318       .  A
N850       Mn864   2.157       .  S
N851        C853   1.344       .  A
Mn852      Cl865   2.449       .  S
C854        C868   1.470       .  S
N855        N856   1.315       .  A
N855        N861   1.325       .  A
N855       Mn863   2.246       .  S
N856        C866   1.354       .  A
N857        N858   1.332       .  A
N857        N859   1.310       .  A
N857       Mn864   2.214       .  S
N858        C867   1.358       .  A
N859        N860   1.314       .  A
N859       Mn863   2.143       .  S
N860        C867   1.339       .  A
N861        N862   1.318       .  A
N861       Mn864   2.159       .  S
N862        C866   1.344       .  A
Mn863      Cl865   2.449       .  S
Mn864      Cl865   2.613       .  S
C866        C876   1.445       .  S
C868        N869   1.370       .  A
C868        N873   1.350       .  A
N869        C870   1.371       .  A
C870        N871   1.371       .  A
N871        C872   1.370       .  A
C872        N873   1.350       .  A
C872        C923   1.470       .  S
C874        N875   1.336       .  A
C874        N879   1.361       .  A
C874        C924   1.445       .  S
N875        C876   1.336       .  A
C876        N877   1.361       .  A
N877        C878   1.366       .  A
C878        N879   1.366       .  A
N880        N881   1.314       .  A
N880        N886   1.310       .  A
N881        C888   1.339       .  A
N882        N884   1.325       .  A
N882        N883   1.318       .  A
N882       Mn898   2.158   1_545  S
N883        C889   1.344       .  A
N884        N885   1.315       .  A
N884       Mn909   2.248       .  S
N885        C889   1.355       .  A
N886        N887   1.332       .  A
N887        C888   1.358       .  A
N890        N896   1.310       .  A
N890        N891   1.314       .  A
N891        C899   1.339       .  A
N892        N893   1.318       .  A
N892        N894   1.325       .  A
N893        C900   1.344       .  A
N894        N895   1.314       .  A
N894       Mn920   2.245   1_655  S
N895        C900   1.354       .  A
N896        N897   1.332       .  A
N896      Mn1206   2.214       .  S
N897        C899   1.358       .  A
Mn898      N1204   2.214       .  S
Mn898      Cl922   2.613       .  S
N901        N902   1.314       .  A
N901        N907   1.310       .  A
N901       Mn909   2.143       .  S
N902        C910   1.339       .  A
N903        N905   1.325       .  A
N903        N904   1.318       .  A
N904        C911   1.344       .  A
N905        N906   1.315       .  A
N906        C911   1.355       .  A
N907        N908   1.332       .  A
N907       Mn921   2.214   1_545  S
N908        C910   1.358       .  A
Mn909      Cl922   2.449   1_545  S
N912        N913   1.314       .  A
N912        N918   1.310       .  A
N912       Mn920   2.144   1_655  S
N913        C923   1.339       .  A
N914        N915   1.318       .  A
N914        N916   1.325       .  A
N914      Mn1229   2.157       .  S
N915        C924   1.344       .  A
N916        N917   1.315       .  A
N917        C924   1.355       .  A
N918        N919   1.332       .  A
N919        C923   1.358       .  A
Mn921      N1222   2.157       .  S
Mn921      Cl922   2.613       .  S
C925        N926   1.336       .  A
C925        N930   1.361       .  A
C925       C1038   1.445       .  S
N926        C927   1.336       .  A
C927        N928   1.361       .  A
C927        C957   1.444       .  S
N928        C929   1.366       .  A
C929        N930   1.366       .  A
C929       C1079   1.481       .  S
C931        N932   1.350       .  A
C931        N936   1.370   1_554  A
C931       C1061   1.470       .  S
N932        C933   1.350       .  A
C933        N934   1.370   1_554  A
C933        C980   1.470       .  S
N934        C935   1.371       .  A
C935        N936   1.371       .  A
C935       C1087   1.513       .  S
C937        N938   1.350       .  A
C937        N942   1.370       .  A
C937       C1037   1.469       .  S
N938        C939   1.350       .  A
C939        N940   1.370       .  A
C939        C969   1.470       .  S
N940        C941   1.370       .  A
C941        N942   1.370       .  A
C941       C1064   1.512       .  S
C943        N944   1.361       .  A
C943        N948   1.336       .  A
C943        C979   1.445       .  S
N944        C945   1.366       .  A
C945        N946   1.366       .  A
C945       C1072   1.482       .  S
N946        C947   1.361       .  A
C947        N948   1.336       .  A
C947       C1049   1.445       .  S
N949        N950   1.314       .  A
N949        N955   1.325       .  A
N949       Mn978   2.245       .  S
N950        C957   1.354       .  A
N951        N953   1.310       .  A
N951        N952   1.332       .  A
N952        C958   1.358       .  A
N953        N954   1.314       .  A
N954        C958   1.339       .  A
N955        N956   1.318       .  A
N956        C957   1.344       .  A
C958       C1000   1.470       .  S
N959        N965   1.325       .  A
N959        N960   1.315       .  A
N959       Mn989   2.247       .  S
N960        C968   1.355       .  A
N961        N962   1.332       .  A
N961        N963   1.310       .  A
N961       Mn967   2.215       .  S
N962        C969   1.358       .  A
N963        N964   1.314       .  A
N964        C969   1.339       .  A
N965        N966   1.318       .  A
N966        C968   1.344       .  A
Mn967      Cl991   2.613       .  S
C968       C1006   1.446       .  S
N970        N971   1.315       .  A
N970        N976   1.325       .  A
N971        C979   1.355       .  A
N972        N974   1.310       .  A
N972        N973   1.332       .  A
N973        C980   1.358       .  A
N974        N975   1.314       .  A
N974       Mn978   2.144       .  S
N975        C980   1.339       .  A
N976        N977   1.318       .  A
N977        C979   1.344       .  A
N981        N982   1.315       .  A
N981        N987   1.325       .  A
N982        C992   1.354       .  A
N983        N984   1.332       .  A
N983        N985   1.310       .  A
N984        C993   1.358       .  A
N985        N986   1.314       .  A
N985       Mn989   2.143       .  S
N986        C993   1.339       .  A
N987        N988   1.318       .  A
N987       Mn990   2.159       .  S
N988        C992   1.344       .  A
Mn990      Cl991   2.613       .  S
C992        C996   1.445       .  S
C993       C1016   1.469       .  S
C994        N995   1.336       .  A
C994        N999   1.361       .  A
C994       C1062   1.445       .  S
N995        C996   1.336       .  A
C996        N997   1.361       .  A
N997        C998   1.366       .  A
C998        N999   1.366       .  A
C998       C1074   1.482       .  S
C1000      N1001   1.350       .  A
C1000      N1005   1.370       .  A
N1001      C1002   1.350       .  A
C1002      N1003   1.370       .  A
C1002      C1026   1.470       .  S
N1003      C1004   1.370       .  A
C1004      N1005   1.370       .  A
C1004      C1066   1.512       .  S
C1006      N1007   1.362       .  A
C1006      N1011   1.337       .  A
N1007      C1008   1.366       .  A
C1008      N1009   1.366       .  A
C1008      C1083   1.484       .  S
N1009      C1010   1.362       .  A
C1010      N1011   1.337       .  A
C1010      C1027   1.446       .  S
C1012      N1013   1.369   1_554  A
C1012      N1017   1.350       .  A
C1012      C1048   1.469       .  S
N1013      C1014   1.370       .  A
C1014      N1015   1.370       .  A
C1014      C1091   1.510       .  S
N1015      C1016   1.369   1_556  A
C1016      N1017   1.350       .  A
N1018      N1019   1.314       .  A
N1018      N1024   1.310       .  A
N1018     Mn1047   2.144       .  S
N1019      C1026   1.339       .  A
N1020      N1022   1.325       .  A
N1020      N1021   1.318       .  A
N1020     Mn1036   2.158       .  S
N1021      C1027   1.344       .  A
N1022      N1023   1.315       .  A
N1022     Mn1047   2.248       .  S
N1023      C1027   1.355       .  A
N1024      N1025   1.332       .  A
N1024     Mn1036   2.215       .  S
N1025      C1026   1.358       .  A
N1028      N1034   1.310       .  A
N1028      N1029   1.314       .  A
N1028     Mn1058   2.144       .  S
N1029      C1037   1.339       .  A
N1030      N1031   1.318       .  A
N1030      N1032   1.325       .  A
N1030     Mn1036   2.158       .  S
N1031      C1038   1.344       .  A
N1032      N1033   1.314       .  A
N1032     Mn1058   2.245       .  S
N1033      C1038   1.354       .  A
N1034      N1035   1.332       .  A
N1034     Mn1036   2.214       .  S
N1035      C1037   1.358       .  A
Mn1036    Cl1060   2.613       .  S
N1039      N1040   1.314       .  A
N1039      N1045   1.310       .  A
N1039     Mn1047   2.143       .  S
N1040      C1048   1.339       .  A
N1041      N1043   1.325       .  A
N1041      N1042   1.318       .  A
N1041     Mn1059   2.158       .  S
N1042      C1049   1.344       .  A
N1043      N1044   1.315       .  A
N1043     Mn1047   2.247       .  S
N1044      C1049   1.355       .  A
N1045      N1046   1.332       .  A
N1045     Mn1059   2.214       .  S
N1046      C1048   1.358       .  A
Mn1047    Cl1060   2.449       .  S
N1050      N1051   1.314       .  A
N1050      N1056   1.310       .  A
N1050     Mn1058   2.144       .  S
N1051      C1061   1.339       .  A
N1052      N1053   1.318       .  A
N1052      N1054   1.325       .  A
N1052     Mn1059   2.157       .  S
N1053      C1062   1.344       .  A
N1054      N1055   1.315       .  A
N1054     Mn1058   2.246       .  S
N1055      C1062   1.355       .  A
N1056      N1057   1.332       .  A
N1056     Mn1059   2.215       .  S
N1057      C1061   1.358       .  A
Mn1058    Cl1060   2.449       .  S
Mn1059    Cl1060   2.613       .  S
C1063      C1186   1.482       .  S
C1063      C1064   1.412       .  A
C1063      C1068   1.408       .  A
C1064      C1065   1.432       .  A
C1065      H1070   1.083       .  S
C1066      C1067   1.412       .  A
C1067      C1129   1.482       .  S
C1068      H1069   1.085       .  S
C1071      C1105   1.512       .  S
C1071      C1072   1.412   1_556  A
C1071      C1076   1.432   1_655  A
C1072      C1073   1.408   1_655  A
C1073      H1078   1.085       .  S
C1074      C1075   1.412   1_554  A
C1075      C1117   1.512       .  S
C1076      H1077   1.083       .  S
C1079      C1080   1.412       .  A
C1080      C1178   1.513       .  S
C1081      C1082   1.433       .  A
C1081      H1086   1.083       .  S
C1082      C1123   1.510       .  S
C1082      C1083   1.411       .  A
C1083      C1084   1.408       .  A
C1084      H1085   1.085       .  S
C1087      C1088   1.412       .  A
C1087      C1092   1.432       .  A
C1088      C1099   1.481       .  S
C1088      C1089   1.408       .  A
C1089      H1094   1.085       .  S
C1090      C1111   1.484       .  S
C1090      C1091   1.411       .  A
C1092      H1093   1.083   1_556  S
C1095      N1096   1.336       .  A
C1095      N1100   1.361       .  A
C1095      C1139   1.444       .  S
N1096      C1097   1.336       .  A
C1097      N1098   1.361       .  A
C1097      C1208   1.445       .  S
N1098      C1099   1.366       .  A
C1099      N1100   1.366       .  A
C1101      N1102   1.350       .  A
C1101      N1106   1.370       .  A
C1101      C1140   1.470       .  S
N1102      C1103   1.350       .  A
C1103      N1104   1.370       .  A
C1103      C1196   1.470       .  S
N1104      C1105   1.370       .  A
C1105      N1106   1.370       .  A
C1107      N1108   1.337       .  A
C1107      N1112   1.362       .  A
C1107      C1197   1.446       .  S
N1108      C1109   1.337       .  A
C1109      N1110   1.362       .  A
C1109      C1150   1.446       .  S
N1110      C1111   1.366       .  A
C1111      N1112   1.366       .  A
C1113      N1114   1.350       .  A
C1113      N1118   1.370       .  A
C1113      C1207   1.469       .  S
N1114      C1115   1.350       .  A
C1115      N1116   1.370       .  A
C1115      C1151   1.470       .  S
N1116      C1117   1.370       .  A
C1117      N1118   1.370       .  A
C1119      N1120   1.350       .  A
C1119      N1124   1.369       .  A
C1119      C1175   1.469       .  S
N1120      C1121   1.350       .  A
C1121      N1122   1.369       .  A
C1121      C1218   1.469       .  S
N1122      C1123   1.370       .  A
C1123      N1124   1.370       .  A
C1125      N1126   1.336       .  A
C1125      N1130   1.361       .  A
C1125      C1161   1.445       .  S
N1126      C1127   1.336       .  A
C1127      N1128   1.361       .  A
C1127      C1219   1.445       .  S
N1128      C1129   1.366       .  A
C1129      N1130   1.366       .  A
N1131      N1132   1.314       .  A
N1131      N1137   1.325       .  A
N1131     Mn1160   2.245       .  S
N1132      C1139   1.354       .  A
N1133      N1135   1.310       .  A
N1133      N1134   1.332       .  A
N1133     Mn1149   2.214       .  S
N1134      C1140   1.358       .  A
N1135      N1136   1.314       .  A
N1135     Mn1160   2.144       .  S
N1136      C1140   1.339       .  A
N1137      N1138   1.318       .  A
N1137     Mn1149   2.158       .  S
N1138      C1139   1.344       .  A
N1141      N1147   1.325       .  A
N1141      N1142   1.315       .  A
N1141     Mn1171   2.247       .  S
N1142      C1150   1.355       .  A
N1143      N1144   1.332       .  A
N1143      N1145   1.310       .  A
N1143     Mn1149   2.215       .  S
N1144      C1151   1.358       .  A
N1145      N1146   1.314       .  A
N1145     Mn1171   2.144       .  S
N1146      C1151   1.339       .  A
N1147      N1148   1.318       .  A
N1147     Mn1149   2.158       .  S
N1148      C1150   1.344       .  A
Mn1149    Cl1173   2.613       .  S
N1152      N1153   1.315       .  A
N1152      N1158   1.325       .  A
N1152     Mn1160   2.245       .  S
N1153      C1161   1.355       .  A
N1154      N1156   1.310       .  A
N1154      N1155   1.332       .  A
N1154     Mn1172   2.215       .  S
N1155      C1162   1.358       .  A
N1156      N1157   1.314       .  A
N1156     Mn1160   2.144       .  S
N1157      C1162   1.339       .  A
N1158      N1159   1.318       .  A
N1158     Mn1172   2.157       .  S
N1159      C1161   1.344       .  A
Mn1160    Cl1173   2.449       .  S
C1162      C1176   1.470       .  S
N1163      N1164   1.315       .  A
N1163      N1169   1.325       .  A
N1163     Mn1171   2.246       .  S
N1164      C1174   1.354       .  A
N1165      N1166   1.332       .  A
N1165      N1167   1.310       .  A
N1165     Mn1172   2.214       .  S
N1166      C1175   1.358       .  A
N1167      N1168   1.314       .  A
N1167     Mn1171   2.143       .  S
N1168      C1175   1.339       .  A
N1169      N1170   1.318       .  A
N1169     Mn1172   2.159       .  S
N1170      C1174   1.344       .  A
Mn1171    Cl1173   2.449       .  S
Mn1172    Cl1173   2.613       .  S
C1174      C1184   1.445       .  S
C1176      N1177   1.370       .  A
C1176      N1181   1.350       .  A
N1177      C1178   1.371       .  A
C1178      N1179   1.371       .  A
N1179      C1180   1.370       .  A
C1180      N1181   1.350       .  A
C1180      C1231   1.470       .  S
C1182      N1183   1.336       .  A
C1182      N1187   1.361       .  A
C1182      C1232   1.445       .  S
N1183      C1184   1.336       .  A
C1184      N1185   1.361       .  A
N1185      C1186   1.366       .  A
C1186      N1187   1.366       .  A
N1188      N1189   1.314       .  A
N1188      N1194   1.310       .  A
N1189      C1196   1.339       .  A
N1190      N1192   1.325       .  A
N1190      N1191   1.318       .  A
N1190     Mn1206   2.158       .  S
N1191      C1197   1.344       .  A
N1192      N1193   1.315       .  A
N1192     Mn1217   2.248       .  S
N1193      C1197   1.355       .  A
N1194      N1195   1.332       .  A
N1195      C1196   1.358       .  A
N1198      N1204   1.310       .  A
N1198      N1199   1.314       .  A
N1199      C1207   1.339       .  A
N1200      N1201   1.318       .  A
N1200      N1202   1.325       .  A
N1201      C1208   1.344       .  A
N1202      N1203   1.314       .  A
N1202     Mn1228   2.245   1_655  S
N1203      C1208   1.354       .  A
N1204      N1205   1.332       .  A
N1205      C1207   1.358       .  A
Mn1206    Cl1230   2.613       .  S
N1209      N1210   1.314       .  A
N1209      N1215   1.310       .  A
N1209     Mn1217   2.143       .  S
N1210      C1218   1.339       .  A
N1211      N1213   1.325       .  A
N1211      N1212   1.318       .  A
N1212      C1219   1.344       .  A
N1213      N1214   1.315       .  A
N1214      C1219   1.355       .  A
N1215      N1216   1.332       .  A
N1215     Mn1229   2.214       .  S
N1216      C1218   1.358       .  A
Mn1217    Cl1230   2.449       .  S
N1220      N1221   1.314       .  A
N1220      N1226   1.310       .  A
N1220     Mn1228   2.144   1_655  S
N1221      C1231   1.339       .  A
N1222      N1223   1.318       .  A
N1222      N1224   1.325       .  A
N1223      C1232   1.344       .  A
N1224      N1225   1.315       .  A
N1225      C1232   1.355       .  A
N1226      N1227   1.332       .  A
N1227      C1231   1.358       .  A
Mn1229    Cl1230   2.613       .  S
