geometry optimzed in LAMMPS
_audit_creation_date              2020-12-01 
_audit_creation_method            'lammps2cif' 
_symmetry_space_group_name_H-M    'P1' 
_symmetry_Int_Tables_number       1 
_symmetry_cell_setting            triclinic 
loop_ 
_symmetry_equiv_pos_as_xyz 
  x,y,z 
_cell_length_a                    30.27612631 
_cell_length_b                    31.110706426910774 
_cell_length_c                    29.922832098252954 
_cell_angle_alpha                 96.44758970401058 
_cell_angle_beta                  86.82371361025041 
_cell_angle_gamma                 89.63391417167793 
loop_ 
_atom_site_label 
_atom_site_type_symbol 
_atom_site_fract_x 
_atom_site_fract_y 
_atom_site_fract_z 
_atom_site_charge 
C1          C  0.22811824  0.29720480  0.72677025     0.86500
C2          C  0.18624279  0.28788461  0.75519077    -0.53700
C3          C  0.18842306  0.25011589  0.77418840     0.09400
C4          C  0.23194037  0.22462968  0.76293368     0.20400
C5          C  0.26582959  0.29513008  0.75951492    -0.54500
C6          C  0.26743972  0.25705933  0.77863199     0.09500
C7          C  0.23566756  0.25698679  0.69287634    -0.54000
C8          C  0.23830418  0.21893077  0.71115232     0.10100
H9          H  0.15855180  0.31047803  0.76205296     0.14600
H10         H  0.23323621  0.19382530  0.77827199     0.00400
H11         H  0.28798051  0.32140878  0.76874744     0.14900
H12         H  0.23838395  0.25891027  0.65681592     0.14700
O13         O  0.28627413  0.02441359  0.45896375    -0.80100
O14         O  0.24089812  0.41370510  0.43747217    -0.80100
O15         O  0.32284677  0.43609280  0.50685050    -0.80100
O16         O  0.20194451  0.51668021  0.42089910    -0.80100
O17         O  0.27232125  0.38594687  0.51102260    -0.80200
O18         O  0.21921243  0.07955313  0.45976390    -0.80100
O19         O  0.18113107  0.43644629  0.41295880    -0.80100
O20         O  0.32392841  0.02618355  0.51889345    -0.80200
C21         C  0.31878862  0.03780028  0.48041360     1.09600
C22         C  0.21366590  0.41145481  0.40668999     1.09500
C23         C  0.31130478  0.39692657  0.50129397     1.09600
C24         C  0.21128614  0.05757170  0.42273077     1.09500
O25         O  0.17241039  0.04956920  0.52912585    -0.80100
O26         O  0.20129482  0.42061227  0.56770619    -0.80200
O27         O  0.26315870  0.02688578  0.59452618    -0.80100
O28         O  0.14296150  0.42560249  0.48776336    -0.80100
O29         O  0.18784870  0.36873598  0.49087380    -0.80200
O30         O  0.25419495  0.07272586  0.54396672    -0.80100
O31         O  0.13249629  0.01330910  0.48107291    -0.80100
O32         O  0.26843777  0.43753411  0.58944171    -0.80200
Co33       Co  0.22913153  0.03387363  0.49358257     1.51500
Co34       Co  0.21900163  0.42011651  0.50272031     1.51700
Co35       Co  0.29145734  0.48113432  0.55002754     1.51600
Co36       Co  0.18407622  0.47520604  0.46904714     1.51500
O37         O  0.23582748  0.47915504  0.51451209    -1.42100
C38         C  0.13633019  0.04479026  0.51022752     1.09500
C39         C  0.23089651  0.42053961  0.59629882     1.09600
C40         C  0.25741823  0.06511150  0.58470806     1.09500
C41         C  0.14935665  0.38458623  0.49050045     1.09500
N42         N  0.47588479  0.28348634  0.48258927    -0.36600
N43         N  0.04016450  0.21739374  0.49243211    -0.57100
N44         N  0.47359839  0.15339085  0.48245982    -0.36600
N45         N  0.40857402  0.21851059  0.46676668    -0.57100
C46         C  0.01288922  0.30525427  0.47522589     0.27000
C47         C  0.44303240  0.30727427  0.46873021     0.27000
C48         C  0.00925291  0.12716601  0.47928592     0.27000
C49         C  0.44122579  0.12826291  0.46496858     0.27000
C50         C  0.06454628  0.25292946  0.50263233     0.35600
C51         C  0.06236195  0.18379481  0.50578522     0.35600
C52         C  0.38236883  0.25423387  0.47173561     0.35600
C53         C  0.38160159  0.18417357  0.46809481     0.35600
C54         C  0.50413347  0.34522860  0.46255824    -0.21900
C55         C  0.45962053  0.34593260  0.45633690    -0.21900
C56         C  0.50064147  0.08616298  0.46475321    -0.21900
C57         C  0.45733787  0.08634736  0.45350288    -0.21900
C58         C  0.10311117  0.24178504  0.52172605    -0.22900
C59         C  0.10166814  0.19785778  0.52383356    -0.22900
C60         C  0.33827949  0.24255557  0.47500757    -0.22900
C61         C  0.33778704  0.19802595  0.47250640    -0.22900
C62         C  0.05356765  0.29454839  0.49199564    -0.18300
C63         C  0.39796757  0.29686471  0.47112109    -0.18300
C64         C  0.39642594  0.14062510  0.46401092    -0.18300
C65         C  0.04890776  0.14037137  0.49899799    -0.18300
H66         H  0.02708330  0.36928527  0.45171993     0.14600
H67         H  0.44139890  0.37214811  0.44463837     0.14600
H68         H  0.02200766  0.05700988  0.45996273     0.14600
H69         H  0.43940118  0.05845988  0.43956016     0.14600
H70         H  0.12964796  0.26296324  0.53252714     0.12900
H71         H  0.12699167  0.17841001  0.53638083     0.12900
H72         H  0.30956021  0.26382360  0.47835910     0.12900
H73         H  0.30861806  0.17816692  0.47382667     0.12900
H74         H  0.47161484  0.25583400  0.49967177     0.26200
H75         H  0.46928691  0.18469530  0.49965897     0.26200
C76         C  0.20727498  0.17429418  0.28777896     0.86500
C77         C  0.16685766  0.17666285  0.25869787    -0.53700
C78         C  0.16675583  0.21147161  0.23407311     0.09400
C79         C  0.20765758  0.24038731  0.24118666     0.20400
C80         C  0.24725830  0.17498032  0.25424214    -0.54500
C81         C  0.24761895  0.20937309  0.22987105     0.09500
C82         C  0.20723226  0.21829713  0.31638010    -0.54000
C83         C  0.20767369  0.25277733  0.29214278     0.10100
H84         H  0.14183962  0.15213368  0.25583728     0.14600
H85         H  0.20944938  0.26922838  0.22269163     0.00400
H86         H  0.27251855  0.14965949  0.24935233     0.14900
H87         H  0.20804852  0.22191749  0.35288352     0.14700
N88         N  0.21854809  0.39030070  0.02646837    -0.36600
N89         N  0.15098998  0.45392012  0.01212435    -0.57100
N90         N  0.21888028  0.01842380  0.99955481    -0.36600
N91         N  0.28680802  0.45458560  0.01026126    -0.57100
C92         C  0.18261157  0.36450420  0.02138761     0.27600
C93         C  0.25549166  0.36477520  0.02048018     0.27000
C94         C  0.18292039  0.03901028  0.98667481     0.27000
C95         C  0.25538442  0.03966114  0.98603317     0.27000
C96         C  0.12481390  0.42268788  0.02675181     0.35600
C97         C  0.12492547  0.98963108  0.01355302     0.35600
C98         C  0.31222704  0.42311785  0.02385242     0.35600
C99         C  0.31228437  0.99024198  0.01041029     0.35600
C100        C  0.19695156  0.32176810  0.01291586    -0.21900
C101        C  0.24279102  0.32193080  0.01237535    -0.21900
C102        C  0.19672000  0.07416801  0.96500539    -0.21900
C103        C  0.24238811  0.07460136  0.96464675    -0.21900
C104        C  0.08216747  0.43872881  0.03708941    -0.22900
C105        C  0.08234360  0.48106268  0.02846794    -0.22900
C106        C  0.35412712  0.43881874  0.03226612    -0.22900
C107        C  0.35423063  0.48113844  0.02359404    -0.22900
C108        C  0.13743562  0.37877936  0.02591939    -0.18300
C109        C  0.30001883  0.37928024  0.02389612    -0.18300
C110        C  0.29969319  0.02966361  0.99500858    -0.18300
C111        C  0.13812942  0.02862079  0.99692998    -0.18300
H112        H  0.17653414  0.29340268  0.00773730     0.14600
H113        H  0.26430184  0.29368964  0.00667882     0.14600
H114        H  0.17601706  0.09746977  0.95143688     0.14600
H115        H  0.26356041  0.09823336  0.95067160     0.14600
H116        H  0.05361486  0.42147809  0.04874573     0.12900
H117        H  0.05386473  0.00283266  0.03297248     0.12900
H118        H  0.38210004  0.42135300  0.04269496     0.12900
H119        H  0.38212393  0.00266979  0.02630766     0.12900
H120        H  0.21782484  0.42321004  0.03740795     0.26200
H121        H  0.21820592  0.99429672  0.02087108     0.26200
O122        O  0.01752695  0.27079020  0.03664001    -0.80100
O123        O  0.35734288  0.20637442  0.04046517    -0.80100
O124        O  0.42519662  0.29383537  0.96869533    -0.80100
O125        O  0.01317227  0.20470689  0.08587258    -0.80100
O126        O  0.41711613  0.26867457  0.03327855    -0.80200
O127        O  0.07748493  0.20976123  0.04640673    -0.80100
O128        O  0.41598140  0.20508601  0.08228655    -0.80100
O129        O  0.01827811  0.29435454  0.97127802    -0.80200
C130        C  0.03060023  0.29815301  0.01119709     1.09600
C131        C  0.37339241  0.20739165  0.07886669     1.09500
C132        C  0.40781437  0.29694118  0.00834635     1.09600
C133        C  0.05585161  0.20932188  0.08398322     1.09500
O134        O  0.04884081  0.15419280  0.97807198    -0.80100
O135        O  0.37560783  0.22847481  0.95430799    -0.80200
O136        O  0.02083438  0.21902287  0.90632585    -0.80100
O137        O  0.42190744  0.12336777  0.02659912    -0.80100
O138        O  0.39582847  0.15239732  0.97183250    -0.80200
O139        O  0.06921441  0.22931684  0.95810266    -0.80100
O140        O  0.01199016  0.12321303  0.02872704    -0.80100
O141        O  0.42996835  0.21994325  0.90256275    -0.80200
Co142      Co  0.02975749  0.21071083  0.00879014     1.51500
Co143      Co  0.40958626  0.20879332  0.00418161     1.51700
Co144      Co  0.47314959  0.25270271  0.93939367     1.51600
Co145      Co  0.46662858  0.16889452  0.04549975     1.51500
O146        O  0.47087787  0.20373842  0.98287410    -1.42100
C147        C  0.04255615  0.12188532  0.99842115     1.09500
C148        C  0.38918488  0.22499274  0.91320440     1.09600
C149        C  0.06041395  0.22363831  0.91683569     1.09500
C150        C  0.39663492  0.12129619  0.99449745     1.09500
C151        C  0.33448408  0.06134904  0.98891394    -0.13300
C152        C  0.36451190  0.08707806  0.98834044    -0.14800
C153        C  0.10109576  0.34765845  0.02606260    -0.13300
C154        C  0.06771460  0.32606088  0.02261130    -0.14800
C155        C  0.37007943  0.32584324  0.02012326    -0.13300
C156        C  0.33655685  0.34807970  0.02385854    -0.14800
C157        C  0.07377866  0.08627767  0.99140345    -0.13300
C158        C  0.10340022  0.05993175  0.99134782    -0.14800
C159        C  0.32630668  0.20565832  0.19842001    -0.13300
C160        C  0.28126215  0.21359239  0.19309242     0.08800
C161        C  0.26770715  0.22228735  0.15109787    -0.13300
C162        C  0.29816235  0.22235227  0.11465604    -0.13300
C163        C  0.34301537  0.21320533  0.11930801     0.08800
C164        C  0.35709994  0.20567658  0.16175146    -0.13300
H165        H  0.33744451  0.19865243  0.23064286     0.12800
H166        H  0.23325108  0.22659635  0.14557320     0.12800
H167        H  0.28617285  0.22801239  0.08235007     0.12800
H168        H  0.39146145  0.19821978  0.16618176     0.12800
C169        C  0.09311544  0.19509053  0.19964991    -0.13300
C170        C  0.13348077  0.21750932  0.19991843     0.08800
C171        C  0.14329558  0.24319543  0.16482349    -0.13300
C172        C  0.11728509  0.24156999  0.12770910    -0.13300
C173        C  0.07938036  0.21615483  0.12585375     0.08800
C174        C  0.06621515  0.19465468  0.16304499    -0.13300
H175        H  0.08257195  0.17687443  0.22695435     0.12800
H176        H  0.17186698  0.26349893  0.16429617     0.12800
H177        H  0.12733100  0.25956828  0.09994845     0.12800
H178        H  0.03645698  0.17550042  0.16269234     0.12800
C179        C  0.24970960  0.34467637  0.36924737    -0.13300
C180        C  0.21676930  0.37639809  0.36894297     0.08800
C181        C  0.18298656  0.36930839  0.33824901    -0.13300
C182        C  0.18130059  0.32988098  0.31039307    -0.13300
C183        C  0.21267595  0.29719403  0.31394584     0.08800
C184        C  0.24744724  0.30544780  0.34243586    -0.13300
H185        H  0.27579899  0.34888307  0.39263578     0.12800
H186        H  0.15671090  0.39299289  0.33762337     0.12800
H187        H  0.15418539  0.32385774  0.28845029     0.12800
H188        H  0.27203699  0.28061168  0.34535358     0.12800
C189        C  0.24942621  0.10819515  0.37616260    -0.13300
C190        C  0.21482493  0.07930473  0.38195047     0.08800
C191        C  0.18039420  0.07671165  0.35264787    -0.13300
C192        C  0.17802148  0.10590557  0.32060939    -0.13300
C193        C  0.21077940  0.13754069  0.31694122     0.08800
C194        C  0.24760427  0.13674017  0.34369805    -0.13300
H195        H  0.27669012  0.11016708  0.39828419     0.12800
H196        H  0.15357582  0.05437419  0.35685858     0.12800
H197        H  0.14942601  0.10433378  0.30066542     0.12800
H198        H  0.27379543  0.16008009  0.34121156     0.12800
C199        C  0.34268648  0.36350161  0.48542447    -0.13300
C200        C  0.36686585  0.33263116  0.47602359    -0.14800
C201        C  0.07821237  0.10702636  0.51059801    -0.13300
C202        C  0.10322903  0.07805884  0.51582006    -0.14800
C203        C  0.08629188  0.32796960  0.49577939    -0.13300
C204        C  0.11321655  0.35603057  0.49470563    -0.14800
C205        C  0.36485820  0.10574840  0.46235651    -0.13300
C206        C  0.34389128  0.07344717  0.46656032    -0.14800
C207        C  0.37230755  0.25330471  0.84157463    -0.13300
C208        C  0.35833474  0.23112997  0.87811750     0.08800
C209        C  0.31438029  0.21760218  0.88200444    -0.13300
C210        C  0.28504733  0.22550829  0.84930399    -0.13300
C211        C  0.29878377  0.24837437  0.81305162     0.08800
C212        C  0.34267345  0.26231096  0.80962995    -0.13300
H213        H  0.40596601  0.26463753  0.83833043     0.12800
H214        H  0.30287185  0.20070420  0.91010362     0.12800
H215        H  0.25146372  0.21427752  0.85292075     0.12800
H216        H  0.35425863  0.27962957  0.78190014     0.12800
C217        C  0.11751783  0.21904976  0.80084475    -0.13300
C218        C  0.15684418  0.24047887  0.81058235     0.08800
C219        C  0.16564268  0.25427343  0.85539818    -0.13300
C220        C  0.13520765  0.24687022  0.89037867    -0.13300
C221        C  0.09519628  0.22619760  0.88081343     0.08800
C222        C  0.08677311  0.21203470  0.83574990    -0.13300
H223        H  0.11035552  0.20847324  0.76629538     0.12800
H224        H  0.19560229  0.27172170  0.86318088     0.12800
H225        H  0.14216257  0.25885714  0.92464242     0.12800
H226        H  0.05603284  0.19626120  0.82743425     0.12800
C227        C  0.18951551  0.36752507  0.63974595    -0.13300
C228        C  0.22452109  0.39643280  0.63623160     0.08800
C229        C  0.25719023  0.39773420  0.66809197    -0.13300
C230        C  0.25696149  0.36840013  0.70027109    -0.13300
C231        C  0.22391373  0.33688958  0.70142923     0.08800
C232        C  0.18914645  0.33830904  0.67204687    -0.13300
H233        H  0.16391113  0.36552976  0.61574220     0.12800
H234        H  0.28456171  0.41986889  0.66657093     0.12800
H235        H  0.28443029  0.36910601  0.72176662     0.12800
H236        H  0.16323145  0.31445731  0.67188149     0.12800
C237        C  0.27269426  0.17753706  0.64123711    -0.13300
C238        C  0.24780904  0.17729823  0.68235976     0.08800
C239        C  0.23020837  0.13791555  0.69360630    -0.13300
C240        C  0.23494436  0.10033817  0.66280229    -0.13300
C241        C  0.25667024  0.10205898  0.62024133     0.08800
C242        C  0.27636454  0.14067096  0.61033759    -0.13300
H243        H  0.28865039  0.20661587  0.63220162     0.12800
H244        H  0.21112475  0.13653943  0.72507488     0.12800
H245        H  0.21978048  0.07064687  0.67124871     0.12800
H246        H  0.29427932  0.14248487  0.57823697     0.12800
C247        C  0.22803586  0.79725056  0.72680672     0.86500
C248        C  0.18624840  0.78797439  0.75537358    -0.53700
C249        C  0.18844978  0.75018800  0.77433255     0.09400
C250        C  0.23190525  0.72463585  0.76289310     0.20400
C251        C  0.26588356  0.79509122  0.75939052    -0.54500
C252        C  0.26749433  0.75700275  0.77847617     0.09500
C253        C  0.23543333  0.75704302  0.69286647    -0.54000
C254        C  0.23811832  0.71896991  0.71109770     0.10100
H255        H  0.15860196  0.81060752  0.76235146     0.14600
H256        H  0.23323142  0.69382530  0.77822096     0.00400
H257        H  0.28813661  0.82130715  0.76853587     0.14900
H258        H  0.23807113  0.75899184  0.65680879     0.14700
O259        O  0.28633230  0.52444740  0.45883645    -0.80100
O260        O  0.24093604  0.91374196  0.43747034    -0.80100
O261        O  0.32275316  0.93608273  0.50694067    -0.80100
O262        O  0.20193074  0.01664613  0.42089797    -0.80100
O263        O  0.27225920  0.88590527  0.51103415    -0.80200
O264        O  0.21926138  0.57959176  0.45973591    -0.80100
O265        O  0.18116511  0.93640997  0.41290162    -0.80100
O266        O  0.32406914  0.52619499  0.51871352    -0.80200
C267        C  0.31888403  0.53781261  0.48023959     1.09600
C268        C  0.21375386  0.91148311  0.40664260     1.09500
C269        C  0.31124323  0.89690845  0.50134242     1.09600
C270        C  0.21129248  0.55760544  0.42272015     1.09500
O271        O  0.17256905  0.54960648  0.52918012    -0.80100
O272        O  0.20114661  0.92050137  0.56765494    -0.80200
O273        O  0.26337873  0.52697462  0.59443032    -0.80100
O274        O  0.14290970  0.92552678  0.48770884    -0.80100
O275        O  0.18783850  0.86867529  0.49074495    -0.80200
O276        O  0.25438250  0.57278936  0.54385794    -0.80100
O277        O  0.13258946  0.51335877  0.48117987    -0.80100
O278        O  0.26825228  0.93746083  0.58947638    -0.80200
Co279      Co  0.22923706  0.53391417  0.49354199     1.51500
Co280      Co  0.21894149  0.92006894  0.50268754     1.51700
Co281      Co  0.29129664  0.98108611  0.55012172     1.51600
Co282      Co  0.18400261  0.97515676  0.46902154     1.51500
O283        O  0.23569122  0.97911936  0.51456343    -1.42100
C284        C  0.13645308  0.54481591  0.51035267     1.09500
C285        C  0.23070254  0.92047751  0.59630281     1.09600
C286        C  0.25762040  0.56519483  0.58460141     1.09500
C287        C  0.14933507  0.88450945  0.49041800     1.09500
N288        N  0.47590946  0.78351974  0.48243159    -0.36600
N289        N  0.04016147  0.71731978  0.49274103    -0.57100
N290        N  0.47367667  0.65342748  0.48250832    -0.36600
N291        N  0.40864034  0.71853251  0.46665892    -0.57100
C292        C  0.01291844  0.80512175  0.47541976     0.27000
C293        C  0.44303901  0.80728786  0.46857050     0.27000
C294        C  0.00918926  0.62708037  0.47976393     0.27000
C295        C  0.44131344  0.62825025  0.46506746     0.27000
C296        C  0.06457111  0.75284879  0.50287628     0.35600
C297        C  0.06237440  0.68372597  0.50607945     0.35600
C298        C  0.38240886  0.75424229  0.47163815     0.35600
C299        C  0.38169007  0.68417383  0.46794115     0.35600
C300        C  0.50415348  0.84517004  0.46214218    -0.21900
C301        C  0.45961898  0.84589091  0.45602758    -0.21900
C302        C  0.50066432  0.58612592  0.46525422    -0.21900
C303        C  0.45739901  0.58628694  0.45388087    -0.21900
C304        C  0.10316461  0.74170834  0.52191759    -0.22900
C305        C  0.10171708  0.69778655  0.52405224    -0.22900
C306        C  0.33832871  0.74253529  0.47487177    -0.22900
C307        C  0.33786618  0.69800274  0.47232173    -0.22900
C308        C  0.05359883  0.79444656  0.49218875    -0.18300
C309        C  0.39797783  0.79688645  0.47104564    -0.18300
C310        C  0.39653038  0.64062680  0.46391379    -0.18300
C311        C  0.04889519  0.64030772  0.49936203    -0.18300
H312        H  0.02717794  0.86899620  0.45157274     0.14600
H313        H  0.44138325  0.87206878  0.44427563     0.14600
H314        H  0.02185673  0.55687821  0.46066079     0.14600
H315        H  0.43946820  0.55835173  0.44004686     0.14600
H316        H  0.12972608  0.76288319  0.53265579     0.12900
H317        H  0.12705906  0.67834061  0.53657198     0.12900
H318        H  0.30959622  0.76378618  0.47822366     0.12900
H319        H  0.30870829  0.67812645  0.47361818     0.12900
H320        H  0.47165938  0.75594024  0.49960248     0.26200
H321        H  0.46937559  0.68480224  0.49950079     0.26200
C322        C  0.20723501  0.67436249  0.28780062     0.86500
C323        C  0.16672017  0.67684459  0.25889004    -0.53700
C324        C  0.16662782  0.71161844  0.23422416     0.09400
C325        C  0.20766449  0.74040447  0.24113507     0.20400
C326        C  0.24709986  0.67487515  0.25409344    -0.54500
C327        C  0.24750698  0.70925238  0.22968444     0.09500
C328        C  0.20745442  0.71838011  0.31634631    -0.54000
C329        C  0.20790964  0.75283709  0.29207147     0.10100
H330        H  0.14164352  0.65237616  0.25613867     0.14600
H331        H  0.20949034  0.76923233  0.22262912     0.00400
H332        H  0.27226910  0.64946992  0.24916377     0.14900
H333        H  0.20838250  0.72202126  0.35284050     0.14700
N334        N  0.21844758  0.89037853  0.02708017    -0.36600
N335        N  0.15084624  0.95392863  0.01270781    -0.57100
N336        N  0.21906577  0.51839870  0.99921544    -0.36600
N337        N  0.28667485  0.95469319  0.01063136    -0.57100
C338        C  0.18249272  0.86457591  0.02213925     0.27600
C339        C  0.25539267  0.86485396  0.02098116     0.27000
C340        C  0.18313067  0.53906728  0.98639863     0.27000
C341        C  0.25559337  0.53957600  0.98565532     0.27000
C342        C  0.12471410  0.92276591  0.02754910     0.35600
C343        C  0.12507584  0.48963801  0.01304149     0.35600
C344        C  0.31215018  0.92319993  0.02410294     0.35600
C345        C  0.31243116  0.49012074  0.01006662     0.35600
C346        C  0.19682532  0.82183881  0.01368276    -0.21900
C347        C  0.24267256  0.82200565  0.01298291    -0.21900
C348        C  0.19696771  0.57422391  0.96474993    -0.21900
C349        C  0.24263778  0.57455843  0.96431193    -0.21900
C350        C  0.08209625  0.93884392  0.03798388    -0.22900
C351        C  0.08223727  0.98112264  0.02917004    -0.22900
C352        C  0.35407491  0.93889565  0.03240254    -0.22900
C353        C  0.35413038  0.98123977  0.02380501    -0.22900
C354        C  0.13731170  0.87885495  0.02672158    -0.18300
C355        C  0.29994906  0.87935481  0.02417792    -0.18300
C356        C  0.29989058  0.52951359  0.99459034    -0.18300
C357        C  0.13833200  0.52871191  0.99663513    -0.18300
H358        H  0.17639890  0.79347047  0.00859903     0.14600
H359        H  0.26417756  0.79376244  0.00723830     0.14600
H360        H  0.17629034  0.59757228  0.95122105     0.14600
H361        H  0.26383957  0.59815895  0.95032140     0.14600
H362        H  0.05357980  0.92164139  0.04980640     0.12900
H363        H  0.05396601  0.50276629  0.03226611     0.12900
H364        H  0.38208943  0.92141507  0.04272349     0.12900
H365        H  0.38222078  0.50256905  0.02614997     0.12900
H366        H  0.21774950  0.92329968  0.03795620     0.26200
H367        H  0.21836624  0.49425302  0.02051312     0.26200
O368        O  0.01729132  0.77087689  0.03695946    -0.80100
O369        O  0.35728255  0.70610225  0.04025368    -0.80100
O370        O  0.42506384  0.79373973  0.96864067    -0.80100
O371        O  0.01309127  0.70450649  0.08596773    -0.80100
O372        O  0.41694207  0.76852822  0.03319874    -0.80200
O373        O  0.07741386  0.71000566  0.04666947    -0.80100
O374        O  0.41592282  0.70477396  0.08207911    -0.80100
O375        O  0.01820154  0.79456997  0.97166297    -0.80200
C376        C  0.03042396  0.79830698  0.01162289     1.09600
C377        C  0.37333485  0.70709365  0.07865535     1.09500
C378        C  0.40766020  0.79682357  0.00828666     1.09600
C379        C  0.05572907  0.70937760  0.08418536     1.09500
O380        O  0.04906256  0.65445477  0.97820242    -0.80100
O381        O  0.37561860  0.72832206  0.95410369    -0.80200
O382        O  0.02098351  0.71931395  0.90655737    -0.80100
O383        O  0.42201890  0.62314230  0.02625137    -0.80100
O384        O  0.39593757  0.65226889  0.97154968    -0.80200
O385        O  0.06925578  0.72966724  0.95842754    -0.80100
O386        O  0.01207838  0.62315003  0.02852054    -0.80100
O387        O  0.43004562  0.71986672  0.90243482    -0.80200
Co388      Co  0.02973965  0.71087795  0.00899153     1.51500
Co389      Co  0.40956547  0.70864729  0.00401156     1.51700
Co390      Co  0.47311970  0.75268934  0.93935965     1.51600
Co391      Co  0.46663780  0.66869090  0.04529023     1.51500
O392        O  0.47090764  0.70367778  0.98278231    -1.42100
C393        C  0.04275692  0.62202525  0.99835748     1.09500
C394        C  0.38924405  0.72485553  0.91301070     1.09600
C395        C  0.06053670  0.72395848  0.91714105     1.09500
C396        C  0.39678646  0.62110946  0.99412654     1.09500
C397        C  0.33470990  0.56113822  0.98844054    -0.13300
C398        C  0.36472816  0.58686442  0.98786928    -0.14800
C399        C  0.10093919  0.84774847  0.02678159    -0.13300
C400        C  0.06753764  0.82618412  0.02319351    -0.14800
C401        C  0.36998471  0.82581187  0.02012365    -0.13300
C402        C  0.33650492  0.84812718  0.02397473    -0.14800
C403        C  0.07403531  0.58646831  0.99127456    -0.13300
C404        C  0.10364573  0.56010275  0.99116608    -0.14800
C405        C  0.32614062  0.70476828  0.19805979    -0.13300
C406        C  0.28120497  0.71344530  0.19291573     0.08800
C407        C  0.26780937  0.72292627  0.15111224    -0.13300
C408        C  0.29828367  0.72288451  0.11465073    -0.13300
C409        C  0.34298800  0.71294613  0.11912020     0.08800
C410        C  0.35694198  0.70473733  0.16140072    -0.13300
H411        H  0.33718921  0.69722717  0.23013314     0.12800
H412        H  0.23343206  0.72798579  0.14573227     0.12800
H413        H  0.28642232  0.72914230  0.08247103     0.12800
H414        H  0.39118880  0.69669304  0.16568961     0.12800
C415        C  0.09298403  0.69508383  0.19982313    -0.13300
C416        C  0.13325685  0.71767546  0.20016317     0.08800
C417        C  0.14291854  0.74352534  0.16517777    -0.13300
C418        C  0.11688587  0.74191032  0.12808688    -0.13300
C419        C  0.07914462  0.71627554  0.12611328     0.08800
C420        C  0.06608788  0.69460687  0.16321330    -0.13300
H421        H  0.08251668  0.67673928  0.22704617     0.12800
H422        H  0.17139817  0.76394543  0.16469550     0.12800
H423        H  0.12682151  0.76005321  0.10040579     0.12800
H424        H  0.03644165  0.67528761  0.16277408     0.12800
C425        C  0.24987350  0.84472254  0.36925615    -0.13300
C426        C  0.21697879  0.87647263  0.36884871     0.08800
C427        C  0.18332627  0.86943543  0.33800079    -0.13300
C428        C  0.18168613  0.83001237  0.31012707    -0.13300
C429        C  0.21296808  0.79727396  0.31382030     0.08800
C430        C  0.24764942  0.80549696  0.34243113    -0.13300
H431        H  0.27587200  0.84889250  0.39275183     0.12800
H432        H  0.15709863  0.89315111  0.33727583     0.12800
H433        H  0.15464928  0.82402493  0.28807829     0.12800
H434        H  0.27217959  0.78063274  0.34544962     0.12800
C435        C  0.24950349  0.60801473  0.37594301    -0.13300
C436        C  0.21475691  0.57933262  0.38194330     0.08800
C437        C  0.18011411  0.57699450  0.35290958    -0.13300
C438        C  0.17773001  0.60620967  0.32090275    -0.13300
C439        C  0.21068562  0.63761529  0.31698188     0.08800
C440        C  0.24766174  0.63659010  0.34350396    -0.13300
H441        H  0.27691034  0.60980281  0.39788245     0.12800
H442        H  0.15316271  0.55484726  0.35731915     0.12800
H443        H  0.14897183  0.60483836  0.30120136     0.12800
H444        H  0.27398273  0.65976772  0.34084508     0.12800
C445        C  0.34265721  0.86350562  0.48545288    -0.13300
C446        C  0.36686303  0.83265399  0.47601052    -0.14800
C447        C  0.07824531  0.60698120  0.51090535    -0.13300
C448        C  0.10331836  0.57804240  0.51605599    -0.14800
C449        C  0.08632914  0.82786177  0.49587046    -0.13300
C450        C  0.11322332  0.85593864  0.49469845    -0.14800
C451        C  0.36495586  0.60575242  0.46217445    -0.13300
C452        C  0.34398250  0.57345021  0.46635501    -0.14800
C453        C  0.37252160  0.75269882  0.84106558    -0.13300
C454        C  0.35841766  0.73092133  0.87786570     0.08800
C455        C  0.31434210  0.71778505  0.88197483    -0.13300
C456        C  0.28500563  0.72573419  0.84929490    -0.13300
C457        C  0.29887072  0.74824814  0.81282548     0.08800
C458        C  0.34288805  0.76175470  0.80913202    -0.13300
H459        H  0.40627926  0.76371782  0.83762166     0.12800
H460        H  0.30272564  0.70119067  0.91025673     0.12800
H461        H  0.25131232  0.71484090  0.85309640     0.12800
H462        H  0.35454942  0.77879389  0.78121840     0.12800
C463        C  0.11787801  0.71867691  0.80122507    -0.13300
C464        C  0.15696704  0.74058667  0.81082835     0.08800
C465        C  0.16558333  0.75490411  0.85557791    -0.13300
C466        C  0.13517379  0.74757253  0.89061649    -0.13300
C467        C  0.09537040  0.72645504  0.88115890     0.08800
C468        C  0.08715346  0.71174932  0.83617528    -0.13300
H469        H  0.11086151  0.70768255  0.76673091     0.12800
H470        H  0.19538403  0.77267119  0.86324941     0.12800
H471        H  0.14195966  0.75996026  0.92481557     0.12800
H472        H  0.05657817  0.69561074  0.82795051     0.12800
C473        C  0.18932119  0.86748745  0.63977930    -0.13300
C474        C  0.22427727  0.89645045  0.63628513     0.08800
C475        C  0.25687678  0.89788289  0.66822945    -0.13300
C476        C  0.25668292  0.86856809  0.70042593    -0.13300
C477        C  0.22374307  0.83695029  0.70150702     0.08800
C478        C  0.18897628  0.83830422  0.67211049    -0.13300
H479        H  0.16375615  0.86541276  0.61573102     0.12800
H480        H  0.28418294  0.92009755  0.66675277     0.12800
H481        H  0.28409523  0.86937811  0.72200041     0.12800
H482        H  0.16311165  0.81439957  0.67193072     0.12800
C483        C  0.27255634  0.67769310  0.64112473    -0.13300
C484        C  0.24770127  0.67737509  0.68225904     0.08800
C485        C  0.23025702  0.63793366  0.69350705    -0.13300
C486        C  0.23510945  0.60036848  0.66270033    -0.13300
C487        C  0.25680017  0.60215145  0.62013312     0.08800
C488        C  0.27634505  0.64083148  0.61022253    -0.13300
H489        H  0.28840834  0.70682210  0.63208741     0.12800
H490        H  0.21121002  0.63649491  0.72498594     0.12800
H491        H  0.22005814  0.57062759  0.67115185     0.12800
H492        H  0.29423074  0.64270134  0.57811701     0.12800
C493        C  0.73114061  0.29534458  0.72652583     0.86500
C494        C  0.68938261  0.28635452  0.75532136    -0.53700
C495        C  0.69140989  0.24858703  0.77434612     0.09400
C496        C  0.73473877  0.22286010  0.76294455     0.20400
C497        C  0.76909300  0.29312642  0.75895558    -0.54500
C498        C  0.77055400  0.25514022  0.77824428     0.09500
C499        C  0.73822623  0.25498786  0.69273491    -0.54000
C500        C  0.74067463  0.21701895  0.71117683     0.10100
H501        H  0.66170610  0.30897520  0.76207001     0.14600
H502        H  0.73597236  0.19206821  0.77833892     0.00400
H503        H  0.79142454  0.31931502  0.76797159     0.14900
H504        H  0.74084106  0.25668517  0.65662323     0.14700
O505        O  0.78660773  0.02293593  0.45830895    -0.80100
O506        O  0.74098492  0.41330106  0.43609670    -0.80100
O507        O  0.82434282  0.43490468  0.50568293    -0.80100
O508        O  0.70238606  0.51663240  0.42146733    -0.80100
O509        O  0.77383037  0.38465273  0.50910589    -0.80200
O510        O  0.72000906  0.07901926  0.46053766    -0.80100
O511        O  0.68040477  0.43681981  0.41387352    -0.80100
O512        O  0.82509243  0.02515992  0.51767543    -0.80200
C513        C  0.81940442  0.03648392  0.47914605     1.09600
C514        C  0.71282779  0.41183882  0.40614962     1.09500
C515        C  0.81272069  0.39577879  0.49929100     1.09600
C516        C  0.71199657  0.05755697  0.42328500     1.09500
O517        O  0.67373290  0.04891951  0.53003295    -0.80100
O518        O  0.70354656  0.41834168  0.56708311    -0.80200
O519        O  0.76490417  0.02529702  0.59405932    -0.80100
O520        O  0.64431356  0.42511598  0.48871248    -0.80100
O521        O  0.68923185  0.36774974  0.48968076    -0.80200
O522        O  0.75580678  0.07140535  0.54385291    -0.80100
O523        O  0.63326626  0.01311022  0.48228150    -0.80100
O524        O  0.77061271  0.43583437  0.58869541    -0.80200
Co525      Co  0.73001996  0.03289495  0.49373375     1.51500
Co526      Co  0.72034519  0.41892587  0.50190550     1.51700
Co527      Co  0.79305118  0.47975144  0.54934962     1.51600
Co528      Co  0.68466054  0.47508803  0.46984281     1.51500
O529        O  0.73688488  0.47801374  0.51457607    -1.42100
C530        C  0.63746470  0.04451181  0.51141744     1.09500
C531        C  0.73328465  0.41843557  0.59557712     1.09600
C532        C  0.75894350  0.06356724  0.58450948     1.09500
C533        C  0.65077173  0.38395986  0.49051230     1.09500
N534        N  0.97546239  0.28214469  0.47787667    -0.36600
N535        N  0.54123180  0.21776052  0.49468964    -0.57100
N536        N  0.97310260  0.15247116  0.47756240    -0.36600
N537        N  0.90843518  0.21679988  0.45954618    -0.57100
C538        C  0.51331889  0.30633660  0.47909906     0.27000
C539        C  0.94314261  0.30538521  0.46226512     0.27000
C540        C  0.50991015  0.12799306  0.48258911     0.27000
C541        C  0.94102328  0.12685745  0.46012399     0.27000
C542        C  0.56612208  0.25313122  0.50368392     0.35600
C543        C  0.56400213  0.18409624  0.50720727     0.35600
C544        C  0.88230711  0.25259206  0.46482487     0.35600
C545        C  0.88143105  0.18253936  0.46158354     0.35600
C546        C  0.00424178  0.34355305  0.45733249    -0.21900
C547        C  0.96004590  0.34374874  0.44945750    -0.21900
C548        C  0.00020398  0.08498127  0.46236796    -0.21900
C549        C  0.95718530  0.08479450  0.45018202    -0.21900
C550        C  0.60557300  0.24178592  0.52102699    -0.22900
C551        C  0.60415265  0.19792312  0.52340559    -0.22900
C552        C  0.83822146  0.24101878  0.46870156    -0.22900
C553        C  0.83765281  0.19648676  0.46643224    -0.22900
C554        C  0.55468046  0.29487771  0.49381131    -0.18300
C555        C  0.89804741  0.29522354  0.46454876    -0.18300
C556        C  0.89624465  0.13902877  0.45863100    -0.18300
C557        C  0.55018129  0.14078639  0.50117070    -0.18300
H558        H  0.52689335  0.37094768  0.45663673     0.14600
H559        H  0.94213479  0.36955769  0.43666260     0.14600
H560        H  0.52261481  0.05825027  0.46081720     0.14600
H561        H  0.93937353  0.05655580  0.43691132     0.14600
H562        H  0.63263635  0.26281206  0.53058522     0.12900
H563        H  0.63001672  0.17836171  0.53487199     0.12900
H564        H  0.80956671  0.26237998  0.47262601     0.12900
H565        H  0.80848313  0.17672164  0.46859005     0.12900
H566        H  0.97052393  0.25535715  0.49561079     0.26200
H567        H  0.96853970  0.18377418  0.49376474     0.26200
C568        C  0.70749094  0.17545997  0.28872426     0.86500
C569        C  0.66851607  0.17550345  0.25729301    -0.53700
C570        C  0.66807879  0.20985654  0.23204410     0.09400
C571        C  0.70713096  0.24074459  0.24098695     0.20400
C572        C  0.74884676  0.17768461  0.25721156    -0.54500
C573        C  0.74865232  0.21161463  0.23229833     0.09500
C574        C  0.70427812  0.21985574  0.31681202    -0.54000
C575        C  0.70437807  0.25387413  0.29189283     0.10100
H576        H  0.64462581  0.14995318  0.25354597     0.14600
H577        H  0.70849199  0.26922383  0.22187800     0.00400
H578        H  0.77514182  0.15338769  0.25350322     0.14900
H579        H  0.70409451  0.22415758  0.35337641     0.14700
N580        N  0.71743340  0.38968900  0.02567900    -0.36600
N581        N  0.65035563  0.45354670  0.01014331    -0.57100
N582        N  0.71922110  0.01826123  0.99899626    -0.36600
N583        N  0.78674155  0.45363356  0.00941137    -0.57100
C584        C  0.68122731  0.36398111  0.02254039     0.27600
C585        C  0.75414866  0.36384206  0.02220397     0.27000
C586        C  0.68353571  0.03980486  0.98678960     0.27000
C587        C  0.75597448  0.04026308  0.98750787     0.27000
C588        C  0.62333525  0.42197935  0.02266145     0.35600
C589        C  0.62425406  0.98897642  0.00897198     0.35600
C590        C  0.81227722  0.42136924  0.02130439     0.35600
C591        C  0.81301515  0.98865679  0.00831141     0.35600
C592        C  0.69516210  0.32106647  0.01829419    -0.21900
C593        C  0.74096083  0.32097255  0.01811871    -0.21900
C594        C  0.69778440  0.07640230  0.96787127    -0.21900
C595        C  0.74336408  0.07672336  0.96839921    -0.21900
C596        C  0.58007806  0.43742291  0.02902258    -0.22900
C597        C  0.58076302  0.47964099  0.02021671    -0.22900
C598        C  0.85510044  0.43593400  0.02696561    -0.22900
C599        C  0.85560038  0.47828818  0.01863176    -0.22900
C600        C  0.63609162  0.37837468  0.02442324    -0.18300
C601        C  0.79900183  0.37801007  0.02375736    -0.18300
C602        C  0.80031768  0.02922696  0.99548609    -0.18300
C603        C  0.63846821  0.02865368  0.99450101    -0.18300
H604        H  0.67450363  0.29272226  0.01553456     0.14600
H605        H  0.76213404  0.29250833  0.01518388     0.14600
H606        H  0.67743224  0.10061342  0.95530728     0.14600
H607        H  0.76476085  0.10112785  0.95619860     0.14600
H608        H  0.55082417  0.41993390  0.03835904     0.12900
H609        H  0.55197889  0.00094037  0.02175469     0.12900
H610        H  0.88336809  0.41784948  0.03579352     0.12900
H611        H  0.88419643  0.99887974  0.01972632     0.12900
H612        H  0.71707189  0.42293956  0.03329020     0.26200
H613        H  0.71814546  0.99262937  0.01819599     0.26200
O614        O  0.51686118  0.26972734  0.03422799    -0.80100
O615        O  0.85759753  0.20685472  0.04230887    -0.80100
O616        O  0.92553637  0.29444213  0.97097324    -0.80100
O617        O  0.51393336  0.20298136  0.08324829    -0.80100
O618        O  0.91741251  0.26912598  0.03538759    -0.80200
O619        O  0.57755356  0.20889072  0.04297335    -0.80100
O620        O  0.91589135  0.20641164  0.08458998    -0.80100
O621        O  0.51770471  0.29350919  0.96888241    -0.80200
C622        C  0.52980363  0.29726279  0.00892016     1.09600
C623        C  0.87337448  0.20834729  0.08086960     1.09500
C624        C  0.90774220  0.29720218  0.01043393     1.09600
C625        C  0.55667083  0.20766478  0.08079656     1.09500
O626        O  0.54840492  0.15364740  0.97473889    -0.80100
O627        O  0.87630559  0.22875988  0.95616644    -0.80200
O628        O  0.52037696  0.21852765  0.90320723    -0.80100
O629        O  0.92195240  0.12418755  0.02957954    -0.80100
O630        O  0.89643409  0.15262265  0.97419825    -0.80200
O631        O  0.56838247  0.22873070  0.95540691    -0.80100
O632        O  0.51197701  0.12218983  0.02527132    -0.80100
O633        O  0.93113488  0.22031569  0.90505514    -0.80200
Co634      Co  0.52926610  0.20988871  0.00599637     1.51500
Co635      Co  0.90998859  0.20922755  0.00637262     1.51700
Co636      Co  0.97375661  0.25337493  0.94204667     1.51600
Co637      Co  0.96652822  0.16997773  0.04832986     1.51500
O638        O  0.97137408  0.20442293  0.98549112    -1.42100
C639        C  0.54248207  0.12122148  0.99494261     1.09500
C640        C  0.89031449  0.22524486  0.91519219     1.09600
C641        C  0.55992912  0.22290217  0.91407982     1.09500
C642        C  0.89700007  0.12172610  0.99719437     1.09500
C643        C  0.83524366  0.06119505  0.99077723    -0.13300
C644        C  0.86509037  0.08722680  0.99088326    -0.14800
C645        C  0.59980410  0.34718118  0.02459518    -0.13300
C646        C  0.56658927  0.32541148  0.02073095    -0.14800
C647        C  0.86906822  0.32496088  0.02167946    -0.13300
C648        C  0.83514750  0.34657502  0.02481423    -0.14800
C649        C  0.57418167  0.08606012  0.98795069    -0.13300
C650        C  0.60404664  0.06006109  0.98826455    -0.14800
C651        C  0.82722716  0.21480772  0.20172835    -0.13300
C652        C  0.78167943  0.21537414  0.19519030     0.08800
C653        C  0.76707357  0.21574897  0.15182919    -0.13300
C654        C  0.79712870  0.21565817  0.11520349    -0.13300
C655        C  0.84274152  0.21417016  0.12103912     0.08800
C656        C  0.85774322  0.21435535  0.16473278    -0.13300
H657        H  0.83899207  0.21389907  0.23514797     0.12800
H658        H  0.73240037  0.21348737  0.14577080     0.12800
H659        H  0.78440037  0.21486938  0.08200154     0.12800
H660        H  0.89277136  0.21286017  0.17011167     0.12800
C661        C  0.59557227  0.19173766  0.19583931    -0.13300
C662        C  0.63584072  0.21430629  0.19635535     0.08800
C663        C  0.64611543  0.23935985  0.16078391    -0.13300
C664        C  0.61981457  0.23805129  0.12378349    -0.13300
C665        C  0.58127998  0.21340074  0.12226418     0.08800
C666        C  0.56848737  0.19155116  0.15933254    -0.13300
H667        H  0.58499888  0.17359210  0.22319581     0.12800
H668        H  0.67524210  0.25900010  0.15995659     0.12800
H669        H  0.62998450  0.25591736  0.09596062     0.12800
H670        H  0.53858814  0.17261390  0.15913512     0.12800
C671        C  0.75022307  0.34843338  0.36239206    -0.13300
C672        C  0.71453785  0.37770187  0.36751985     0.08800
C673        C  0.67721567  0.36855980  0.34180370    -0.13300
C674        C  0.67470466  0.32909569  0.31428815    -0.13300
C675        C  0.70916370  0.29856550  0.31281450     0.08800
C676        C  0.74740427  0.30912698  0.33562384    -0.13300
H677        H  0.77918014  0.35449461  0.38172857     0.12800
H678        H  0.64888633  0.39036803  0.34533877     0.12800
H679        H  0.64496830  0.32126357  0.29667391     0.12800
H680        H  0.77434390  0.28586905  0.33447496     0.12800
C681        C  0.74866704  0.11120144  0.37930095    -0.13300
C682        C  0.71580689  0.08002001  0.38282503     0.08800
C683        C  0.68320363  0.07563143  0.35143671    -0.13300
C684        C  0.68060839  0.10513415  0.31964555    -0.13300
C685        C  0.71129639  0.13899358  0.31834617     0.08800
C686        C  0.74657204  0.14016809  0.34725561    -0.13300
H687        H  0.77470323  0.11455436  0.40285562     0.12800
H688        H  0.65782270  0.05145916  0.35365578     0.12800
H689        H  0.65345512  0.10182916  0.29779852     0.12800
H690        H  0.77134281  0.16511280  0.34654961     0.12800
C691        C  0.84377277  0.36245240  0.48196869    -0.13300
C692        C  0.86731869  0.33133461  0.47100186    -0.14800
C693        C  0.57966180  0.10721126  0.51208291    -0.13300
C694        C  0.60462646  0.07810175  0.51712571    -0.14800
C695        C  0.58763113  0.32791753  0.49667018    -0.13300
C696        C  0.61469322  0.35567709  0.49515032    -0.14800
C697        C  0.86474787  0.10416197  0.45867210    -0.13300
C698        C  0.84416080  0.07195599  0.46438452    -0.14800
C699        C  0.87473652  0.25187204  0.84235241    -0.13300
C700        C  0.85999747  0.23091889  0.87954861     0.08800
C701        C  0.81592840  0.21778119  0.88324847    -0.13300
C702        C  0.78717485  0.22494483  0.84982001    -0.13300
C703        C  0.80159484  0.24671831  0.81299905     0.08800
C704        C  0.84565546  0.26017213  0.80964003    -0.13300
H705        H  0.90854958  0.26279968  0.83915748     0.12800
H706        H  0.80387857  0.20174013  0.91176700     0.12800
H707        H  0.75345764  0.21406738  0.85333385     0.12800
H708        H  0.85774013  0.27664404  0.78146361     0.12800
C709        C  0.62004724  0.21710209  0.79928736    -0.13300
C710        C  0.65916884  0.23854353  0.81000666     0.08800
C711        C  0.66682448  0.25247607  0.85504741    -0.13300
C712        C  0.63538544  0.24542234  0.88923027    -0.13300
C713        C  0.59543946  0.22503038  0.87866808     0.08800
C714        C  0.58822258  0.21050229  0.83342325    -0.13300
H715        H  0.61380557  0.20637337  0.76453081     0.12800
H716        H  0.69659829  0.26991085  0.86360376     0.12800
H717        H  0.64152321  0.25756577  0.92366861     0.12800
H718        H  0.55763435  0.19481898  0.82437742     0.12800
C719        C  0.69209614  0.36560385  0.63959049    -0.13300
C720        C  0.72722502  0.39430754  0.63559914     0.08800
C721        C  0.76017118  0.39553986  0.66718522    -0.13300
C722        C  0.76009689  0.36630068  0.69947855    -0.13300
C723        C  0.72691998  0.33495996  0.70105458     0.08800
C724        C  0.69188271  0.33648960  0.67200613    -0.13300
H725        H  0.66622153  0.36370675  0.61588910     0.12800
H726        H  0.78761980  0.41754906  0.66536632     0.12800
H727        H  0.78774816  0.36692992  0.72074027     0.12800
H728        H  0.66582766  0.31280094  0.67219880     0.12800
C729        C  0.77574307  0.17521213  0.64206843    -0.13300
C730        C  0.74969778  0.17533983  0.68250051     0.08800
C731        C  0.73036699  0.13645899  0.69298588    -0.13300
C732        C  0.73481020  0.09895385  0.66205558    -0.13300
C733        C  0.75807157  0.10031071  0.62020438     0.08800
C734        C  0.77922868  0.13843432  0.61105914    -0.13300
H735        H  0.79270845  0.20401071  0.63368077     0.12800
H736        H  0.71024426  0.13552777  0.72390990     0.12800
H737        H  0.71835751  0.06966010  0.66980592     0.12800
H738        H  0.79815568  0.13992784  0.57945897     0.12800
C739        C  0.73118909  0.79548189  0.72655763     0.86500
C740        C  0.68949798  0.78654808  0.75547921    -0.53700
C741        C  0.69154411  0.74877807  0.77449957     0.09400
C742        C  0.73481607  0.72298809  0.76296159     0.20400
C743        C  0.76924982  0.79320102  0.75886759    -0.54500
C744        C  0.77071887  0.75520448  0.77815669     0.09500
C745        C  0.73813245  0.75510961  0.69275973    -0.54000
C746        C  0.74061999  0.71713670  0.71119064     0.10100
H747        H  0.66184286  0.80918819  0.76227995     0.14600
H748        H  0.73604627  0.69218895  0.77833634     0.00400
H749        H  0.79164607  0.81935591  0.76779757     0.14900
H750        H  0.74065480  0.75681232  0.65664889     0.14700
O751        O  0.78658217  0.52283993  0.45847971    -0.80100
O752        O  0.74108206  0.91325233  0.43590093    -0.80100
O753        O  0.82439795  0.93496484  0.50562671    -0.80100
O754        O  0.70254796  0.01660813  0.42111654    -0.80100
O755        O  0.77389185  0.88468138  0.50894963    -0.80200
O756        O  0.72006249  0.57903022  0.46078770    -0.80100
O757        O  0.68057451  0.93674663  0.41349894    -0.80100
O758        O  0.82515166  0.52506138  0.51778384    -0.80200
C759        C  0.81940850  0.53638582  0.47926816     1.09600
C760        C  0.71296513  0.91171289  0.40590860     1.09500
C761        C  0.81279981  0.89582715  0.49924382     1.09600
C762        C  0.71191900  0.55756060  0.42357688     1.09500
O763        O  0.67382422  0.54904595  0.53034854    -0.80100
O764        O  0.70355275  0.91828523  0.56688084    -0.80200
O765        O  0.76510339  0.52527375  0.59426522    -0.80100
O766        O  0.64442747  0.92505852  0.48826643    -0.80100
O767        O  0.68932679  0.86770123  0.48943855    -0.80200
O768        O  0.75596220  0.57137014  0.54405158    -0.80100
O769        O  0.63321178  0.51320503  0.48275514    -0.80100
O770        O  0.77056927  0.93588461  0.58855572    -0.80200
Co771      Co  0.73005158  0.53290555  0.49397841     1.51500
Co772      Co  0.72038914  0.91889293  0.50169465     1.51700
Co773      Co  0.79299174  0.97981120  0.54920696     1.51600
Co774      Co  0.68477091  0.97504865  0.46945509     1.51500
O775        O  0.73689785  0.97799359  0.51431824    -1.42100
C776        C  0.63750801  0.54464926  0.51181801     1.09500
C777        C  0.73326561  0.91843339  0.59541382     1.09600
C778        C  0.75915513  0.56354649  0.58470673     1.09500
C779        C  0.65087756  0.88391083  0.49012373     1.09500
N780        N  0.97546694  0.78207064  0.47822748    -0.36600
N781        N  0.54128034  0.71780671  0.49462645    -0.57100
N782        N  0.97305997  0.65240243  0.47798582    -0.36600
N783        N  0.90840767  0.71675461  0.46000802    -0.57100
C784        C  0.51335361  0.80632917  0.47878233     0.27000
C785        C  0.94316578  0.80527089  0.46253240     0.27000
C786        C  0.50995301  0.62801803  0.48286702     0.27000
C787        C  0.94094505  0.62677694  0.46063621     0.27000
C788        C  0.56620601  0.75318364  0.50341786     0.35600
C789        C  0.56408299  0.68419229  0.50720862     0.35600
C790        C  0.88229522  0.75255534  0.46524561     0.35600
C791        C  0.88138824  0.68250436  0.46200418     0.35600
C792        C  0.00430431  0.84333255  0.45734848    -0.21900
C793        C  0.96010230  0.84354030  0.44951789    -0.21900
C794        C  0.00008357  0.58486707  0.46299469    -0.21900
C795        C  0.95706083  0.58468276  0.45082918    -0.21900
C796        C  0.60571231  0.74188846  0.52068712    -0.22900
C797        C  0.60428936  0.69805550  0.52323739    -0.22900
C798        C  0.83820187  0.74100300  0.46907994    -0.22900
C799        C  0.83761281  0.69646930  0.46680292    -0.22900
C800        C  0.55474357  0.79488724  0.49343804    -0.18300
C801        C  0.89806612  0.79516460  0.46488976    -0.18300
C802        C  0.89618386  0.63898796  0.45904343    -0.18300
C803        C  0.55023500  0.64088291  0.50139155    -0.18300
H804        H  0.52692299  0.87084301  0.45607775     0.14600
H805        H  0.94221165  0.86929179  0.43660067     0.14600
H806        H  0.52260339  0.55819227  0.46152608     0.14600
H807        H  0.93922425  0.55642745  0.43764714     0.14600
H808        H  0.63281483  0.76292692  0.53008410     0.12900
H809        H  0.63018928  0.67853425  0.53469903     0.12900
H810        H  0.80955665  0.76237608  0.47294969     0.12900
H811        H  0.80843127  0.67671415  0.46891327     0.12900
H812        H  0.97051282  0.75538344  0.49609937     0.26200
H813        H  0.96855273  0.68375332  0.49405943     0.26200
C814        C  0.70738566  0.67515068  0.28869764     0.86500
C815        C  0.66839465  0.67523229  0.25730419    -0.53700
C816        C  0.66792413  0.70961294  0.23206014     0.09400
C817        C  0.70707507  0.74042439  0.24095760     0.20400
C818        C  0.74871663  0.67730410  0.25715247    -0.54500
C819        C  0.74857611  0.71121162  0.23218165     0.09500
C820        C  0.70422659  0.71954305  0.31676892    -0.54000
C821        C  0.70437567  0.75355482  0.29186154     0.10100
H822        H  0.64449175  0.64969598  0.25368394     0.14600
H823        H  0.70851770  0.76894585  0.22193726     0.00400
H824        H  0.77499588  0.65299510  0.25354510     0.14900
H825        H  0.70402848  0.72384886  0.35333496     0.14700
N826        N  0.71725817  0.88973195  0.02584682    -0.36600
N827        N  0.65019544  0.95363242  0.01045198    -0.57100
N828        N  0.71936473  0.51809826  0.99848653    -0.36600
N829        N  0.78658434  0.95373235  0.00975575    -0.57100
C830        C  0.68104134  0.86403437  0.02273666     0.27600
C831        C  0.75396882  0.86388099  0.02237796     0.27000
C832        C  0.68367517  0.53962792  0.98625945     0.27000
C833        C  0.75612076  0.54006658  0.98692845     0.27000
C834        C  0.62315445  0.92204035  0.02287256     0.35600
C835        C  0.62440622  0.48888383  0.00863824     0.35600
C836        C  0.81215206  0.92138127  0.02141680     0.35600
C837        C  0.81313617  0.48858651  0.00800953     0.35600
C838        C  0.69496592  0.82111899  0.01851904    -0.21900
C839        C  0.74076487  0.82101588  0.01833184    -0.21900
C840        C  0.69792700  0.57616371  0.96723040    -0.21900
C841        C  0.74351133  0.57647024  0.96772273    -0.21900
C842        C  0.57989370  0.93747738  0.02919966    -0.22900
C843        C  0.58059634  0.97971520  0.02047136    -0.22900
C844        C  0.85503199  0.93586792  0.02688378    -0.22900
C845        C  0.85553355  0.97825549  0.01867244    -0.22900
C846        C  0.63590410  0.87842987  0.02460464    -0.18300
C847        C  0.79883816  0.87802607  0.02386919    -0.18300
C848        C  0.80045390  0.52909175  0.99501579    -0.18300
C849        C  0.63860546  0.52853705  0.99408856    -0.18300
H850        H  0.67430031  0.79277941  0.01578490     0.14600
H851        H  0.76192893  0.79254607  0.01541013     0.14600
H852        H  0.67757269  0.60035459  0.95463563     0.14600
H853        H  0.76490998  0.60084576  0.95546689     0.14600
H854        H  0.55062689  0.91997471  0.03846794     0.12900
H855        H  0.55214336  0.50086291  0.02149796     0.12900
H856        H  0.88333999  0.91771153  0.03549706     0.12900
H857        H  0.88422394  0.49896263  0.01979415     0.12900
H858        H  0.71691109  0.92299695  0.03342389     0.26200
H859        H  0.71829521  0.49254349  0.01776720     0.26200
O860        O  0.51665974  0.76975726  0.03426855    -0.80100
O861        O  0.85756563  0.70678760  0.04240410    -0.80100
O862        O  0.92545319  0.79450926  0.97109355    -0.80100
O863        O  0.51382429  0.70278151  0.08316882    -0.80100
O864        O  0.91728708  0.76912989  0.03546697    -0.80200
O865        O  0.57749915  0.70910693  0.04309647    -0.80100
O866        O  0.91599677  0.70616961  0.08450160    -0.80100
O867        O  0.51756929  0.79356193  0.96893563    -0.80200
C868        C  0.52961345  0.79731709  0.00899338     1.09600
C869        C  0.87348540  0.70822122  0.08091008     1.09500
C870        C  0.90759810  0.79721162  0.01052442     1.09600
C871        C  0.55652990  0.70767485  0.08084127     1.09500
O872        O  0.54865161  0.65377321  0.97477927    -0.80100
O873        O  0.87634928  0.72875214  0.95610129    -0.80200
O874        O  0.52044779  0.71861566  0.90322698    -0.80100
O875        O  0.92205341  0.62402914  0.02931756    -0.80100
O876        O  0.89641994  0.65266898  0.97412183    -0.80200
O877        O  0.56838793  0.72889747  0.95548769    -0.80100
O878        O  0.51204525  0.62205576  0.02499404    -0.80100
O879        O  0.93130212  0.72047732  0.90509194    -0.80200
Co880      Co  0.52926534  0.70996265  0.00602914     1.51500
Co881      Co  0.90995466  0.70923943  0.00639206     1.51700
Co882      Co  0.97379671  0.75355001  0.94223225     1.51600
Co883      Co  0.96657627  0.66982193  0.04822221     1.51500
O884        O  0.97139691  0.70448181  0.98554850    -1.42100
C885        C  0.54266104  0.62123431  0.99479501     1.09500
C886        C  0.89045406  0.72528708  0.91514584     1.09600
C887        C  0.55998364  0.72303559  0.91414698     1.09500
C888        C  0.89705716  0.62167238  0.99697291     1.09500
C889        C  0.83536384  0.56108409  0.99034211    -0.13300
C890        C  0.86518992  0.58714419  0.99053404    -0.14800
C891        C  0.59960787  0.84723625  0.02474095    -0.13300
C892        C  0.56639031  0.82546902  0.02084873    -0.14800
C893        C  0.86888419  0.82493199  0.02174526    -0.13300
C894        C  0.83496676  0.84655674  0.02488190    -0.14800
C895        C  0.57435392  0.58605103  0.98770339    -0.13300
C896        C  0.60418832  0.55999234  0.98793128    -0.14800
C897        C  0.82740751  0.71145656  0.20144500    -0.13300
C898        C  0.78194746  0.71524581  0.19533941     0.08800
C899        C  0.76759965  0.71919993  0.15244439    -0.13300
C900        C  0.79772168  0.71915005  0.11587223    -0.13300
C901        C  0.84311072  0.71423219  0.12124531     0.08800
C902        C  0.85796176  0.71112302  0.16450931    -0.13300
H903        H  0.83904396  0.70789629  0.23443330     0.12800
H904        H  0.73291125  0.71965896  0.14649708     0.12800
H905        H  0.78511294  0.72113832  0.08297869     0.12800
H906        H  0.89281865  0.70697196  0.16950444     0.12800
C907        C  0.59566945  0.69088592  0.19550896    -0.13300
C908        C  0.63548994  0.71420577  0.19652767     0.08800
C909        C  0.64508808  0.74020186  0.16158063    -0.13300
C910        C  0.61890648  0.73884585  0.12448256    -0.13300
C911        C  0.58097464  0.71336753  0.12239516     0.08800
C912        C  0.56860097  0.69074892  0.15900356    -0.13300
H913        H  0.58540346  0.67210443  0.22243890     0.12800
H914        H  0.67347953  0.76081917  0.16135134     0.12800
H915        H  0.62864035  0.75741046  0.09707723     0.12800
H916        H  0.53909251  0.67123682  0.15840179     0.12800
C917        C  0.75016161  0.84794693  0.36265285    -0.13300
C918        C  0.71466548  0.87742787  0.36741576     0.08800
C919        C  0.67747993  0.86841292  0.34146007    -0.13300
C920        C  0.67493723  0.82892282  0.31398505    -0.13300
C921        C  0.70921101  0.79822977  0.31281623     0.08800
C922        C  0.74729881  0.80861957  0.33594476    -0.13300
H923        H  0.77899434  0.85388112  0.38220418     0.12800
H924        H  0.64928011  0.89037330  0.34473505     0.12800
H925        H  0.64530751  0.82121552  0.29614510     0.12800
H926        H  0.77408645  0.78522865  0.33505807     0.12800
C927        C  0.74849436  0.61121060  0.37953667    -0.13300
C928        C  0.71568910  0.57998153  0.38308299     0.08800
C929        C  0.68315965  0.57543437  0.35161471    -0.13300
C930        C  0.68057144  0.60483690  0.31971532    -0.13300
C931        C  0.71119923  0.63874198  0.31839079     0.08800
C932        C  0.74641973  0.64005744  0.34737829    -0.13300
H933        H  0.77448345  0.61468223  0.40313994     0.12800
H934        H  0.65783634  0.55120622  0.35383335     0.12800
H935        H  0.65348731  0.60141526  0.29778437     0.12800
H936        H  0.77115106  0.66503784  0.34665213     0.12800
C937        C  0.84388971  0.86248785  0.48207515    -0.13300
C938        C  0.86738637  0.83131253  0.47123730    -0.14800
C939        C  0.57973192  0.60736580  0.51242063    -0.13300
C940        C  0.60470731  0.57827992  0.51752287    -0.14800
C941        C  0.58769874  0.82791340  0.49618025    -0.13300
C942        C  0.61478508  0.85564281  0.49466427    -0.14800
C943        C  0.86466596  0.60413638  0.45892275    -0.13300
C944        C  0.84409649  0.57189924  0.46452624    -0.14800
C945        C  0.87490659  0.75198596  0.84231838    -0.13300
C946        C  0.86020101  0.73087601  0.87942007     0.08800
C947        C  0.81620055  0.71752340  0.88297197    -0.13300
C948        C  0.78745504  0.72471519  0.84954942    -0.13300
C949        C  0.80180886  0.74670231  0.81285554     0.08800
C950        C  0.84583027  0.76029459  0.80959705    -0.13300
H951        H  0.90867569  0.76305557  0.83922512     0.12800
H952        H  0.80418474  0.70133205  0.91139756     0.12800
H953        H  0.75377661  0.71371979  0.85300451     0.12800
H954        H  0.85788288  0.77690990  0.78151312     0.12800
C955        C  0.62006985  0.71748927  0.79936538    -0.13300
C956        C  0.65930511  0.73868581  0.81014525     0.08800
C957        C  0.66706625  0.75232977  0.85522782    -0.13300
C958        C  0.63559502  0.74526881  0.88938631    -0.13300
C959        C  0.59552862  0.72514336  0.87875982     0.08800
C960        C  0.58823331  0.71086207  0.83347489    -0.13300
H961        H  0.61375087  0.70697491  0.76458087     0.12800
H962        H  0.69693762  0.76956815  0.86384062     0.12800
H963        H  0.64181089  0.75720390  0.92386127     0.12800
H964        H  0.55756407  0.69537225  0.82437330     0.12800
C965        C  0.69210376  0.86561718  0.63951025    -0.13300
C966        C  0.72721005  0.89434116  0.63548127     0.08800
C967        C  0.76012612  0.89566107  0.66711286    -0.13300
C968        C  0.76006004  0.86647475  0.69946918    -0.13300
C969        C  0.72692664  0.83509239  0.70106166     0.08800
C970        C  0.69188951  0.83656915  0.67199925    -0.13300
H971        H  0.66624403  0.86365741  0.61579129     0.12800
H972        H  0.78754618  0.91770244  0.66528821     0.12800
H973        H  0.78768020  0.86717815  0.72077757     0.12800
H974        H  0.66584837  0.81286780  0.67222356     0.12800
C975        C  0.77554671  0.67538016  0.64196697    -0.13300
C976        C  0.74970561  0.67545433  0.68252085     0.08800
C977        C  0.73073660  0.63647266  0.69320410    -0.13300
C978        C  0.73529709  0.59891950  0.66234922    -0.13300
C979        C  0.75830526  0.60032260  0.62037267     0.08800
C980        C  0.77913934  0.63855288  0.61103842    -0.13300
H981        H  0.79229060  0.70424060  0.63342300     0.12800
H982        H  0.71080018  0.63547670  0.72423301     0.12800
H983        H  0.71910545  0.56954435  0.67025711     0.12800
H984        H  0.79788474  0.64009586  0.57934350     0.12800
loop_ 
_geom_bond_atom_site_label_1 
_geom_bond_atom_site_label_2 
_geom_bond_distance 
_geom_bond_site_symmetry_2 
_ccdc_geom_bond_type 
C1            C2   1.535       .  S
C1            C7   1.527       .  S
C1            C5   1.551       .  S
C1          C231   1.528       .  S
C2            H9   1.086       .  S
C2            C3   1.364       .  D
C3            C4   1.535       .  S
C3          C218   1.467       .  S
C4            C8   1.541       .  S
C4            C6   1.535       .  S
C4           H10   1.109       .  S
C5           H11   1.082       .  S
C5            C6   1.374       .  D
C6          C211   1.484       .  S
C7           H12   1.086       .  S
C7            C8   1.362       .  D
C8          C238   1.490       .  S
O13          C21   1.253       .  A
O13         Co33   1.970       .  S
O14          C22   1.266       .  A
O14         Co34   2.015       .  S
O15          C23   1.265       .  A
O15         Co35   1.994       .  S
O16         C270   1.302       .  A
O16         Co36   2.091       .  S
O17          C23   1.259       .  A
O17         Co34   1.970       .  S
O18          C24   1.271       .  A
O18         Co33   1.867       .  S
O19          C22   1.244       .  A
O19         Co36   1.960       .  S
O20          C21   1.262       .  A
O20        Co281   2.007   1_545  S
C21         C206   1.435       .  S
C22         C180   1.478       .  S
C23         C199   1.427       .  S
C24         O262   1.302       .  A
C24         C190   1.459       .  S
O25          C38   1.260       .  A
O25         Co33   1.997       .  S
O26          C39   1.273       .  A
O26         Co34   1.987       .  S
O27          C40   1.270       .  A
O27        Co281   1.989   1_545  S
O28          C41   1.302       .  A
O28         Co36   2.094       .  S
O29          C41   1.264       .  A
O29         Co34   1.871       .  S
O30          C40   1.277       .  A
O30         Co33   2.010       .  S
O31          C38   1.247       .  A
O31        Co282   1.946   1_545  S
O32          C39   1.273       .  A
O32         Co35   1.999       .  S
Co33        O283   1.893   1_545  S
Co34         O37   1.909       .  S
Co35        O266   2.007       .  S
Co35        O273   1.989       .  S
Co35         O37   2.038       .  S
Co36        O277   1.946       .  S
Co36         O37   2.126       .  S
O37        Co279   1.894       .  S
C38         C202   1.426       .  S
C39         C228   1.485       .  S
C40         C241   1.475       .  S
C41         C204   1.423       .  S
N42          C47   1.347       .  A
N42         C538   1.347       .  A
N42          H74   1.054       .  S
N43          C50   1.349       .  A
N43          C51   1.349       .  A
N44          C49   1.349       .  A
N44         C540   1.350       .  A
N44          H75   1.053       .  S
N45          C52   1.351       .  A
N45          C53   1.352       .  A
C46         N534   1.349   1_455  A
C46          C62   1.407       .  A
C46         C546   1.389       .  A
C47          C63   1.404       .  A
C47          C55   1.387       .  A
C48         N536   1.351   1_455  A
C48          C65   1.410       .  A
C48         C548   1.387       .  A
C49          C64   1.410       .  A
C49          C57   1.389       .  A
C50          C62   1.410       .  A
C50          C58   1.387       .  A
C51          C65   1.410       .  A
C51          C59   1.387       .  A
C52          C60   1.387       .  A
C52          C63   1.412       .  A
C53          C61   1.387       .  A
C53          C64   1.415       .  A
C54          C55   1.371       .  A
C54         C538   1.390       .  A
C54         H558   1.082       .  S
C55          H67   1.083       .  S
C56          C57   1.372       .  A
C56         C540   1.387       .  A
C56         H560   1.082       .  S
C57          H69   1.082       .  S
C58          C59   1.376       .  A
C58          H70   1.082       .  S
C59          H71   1.083       .  S
C60          C61   1.379       .  A
C60          H72   1.083       .  S
C61          H73   1.082       .  S
C62         C203   1.440       .  S
C63         C200   1.443       .  S
C64         C205   1.449       .  S
C65         C201   1.445       .  S
H66         C546   1.082       .  S
H68         C548   1.082       .  S
C76          C77   1.546       .  S
C76          C82   1.531       .  S
C76          C80   1.531       .  S
C76         C193   1.521       .  S
C77          H84   1.079       .  S
C77          C78   1.377       .  D
C78          C79   1.545       .  S
C78         C170   1.500       .  S
C79          C83   1.530       .  S
C79          C81   1.541       .  S
C79          H85   1.106       .  S
C80          H86   1.087       .  S
C80          C81   1.361       .  D
C81         C160   1.475       .  S
C82          H87   1.087       .  S
C82          C83   1.360       .  D
C83         C183   1.473       .  S
N88          C93   1.360       .  A
N88          C92   1.361       .  A
N88         H120   1.039       .  S
N89          C96   1.353       .  A
N89         C343   1.353       .  A
N90          C95   1.357       .  A
N90          C94   1.355       .  A
N90         H121   1.038   1_546  S
N91          C98   1.353       .  A
N91         C345   1.355       .  A
C92         C100   1.388       .  A
C92         C108   1.430       .  A
C93         C109   1.430       .  A
C93         C101   1.388       .  A
C94         C102   1.388       .  A
C94         C111   1.421       .  A
C95         C110   1.422       .  A
C95         C103   1.387       .  A
C96         C108   1.413       .  A
C96         C104   1.387       .  A
C97         N335   1.353       .  A
C97         C111   1.414   1_564  A
C97         C351   1.387       .  A
C98         C106   1.388       .  A
C98         C109   1.415       .  A
C99         N337   1.355       .  A
C99         C110   1.415   1_564  A
C99         C353   1.386       .  A
C100        C101   1.387       .  A
C100        H112   1.082       .  S
C101        H113   1.083       .  S
C102        C103   1.382       .  A
C102        H114   1.082       .  S
C103        H115   1.082       .  S
C104        C105   1.370       .  A
C104        H116   1.082       .  S
C105        C343   1.387       .  A
C105        H363   1.082       .  S
C106        C107   1.370       .  A
C106        H118   1.082       .  S
C107        C345   1.386       .  A
C107        H365   1.082       .  S
C108        C153   1.470       .  S
C109        C156   1.467       .  S
C110        C151   1.465       .  S
C111        C158   1.458       .  S
H117        C351   1.082   1_545  S
H119        C353   1.082   1_545  S
O122        C130   1.256       .  A
O122       Co142   1.983       .  S
O123        C131   1.269       .  A
O123       Co143   1.875       .  S
O124        C132   1.264   1_556  A
O124       Co144   2.024       .  S
O125        C133   1.300       .  A
O125       Co637   2.085   1_455  S
O126        C132   1.256       .  A
O126       Co143   1.986       .  S
O127        C133   1.271       .  A
O127       Co142   1.882       .  S
O128        C131   1.301       .  A
O128       Co145   2.084       .  S
O129        C130   1.264   1_556  A
O129       Co636   2.027   1_455  S
C130        C154   1.457       .  S
C131        C163   1.473       .  S
C132        C155   1.452       .  S
C133        C173   1.471       .  S
O134        C147   1.243       .  A
O134       Co142   1.958   1_556  S
O135        C148   1.268       .  A
O135       Co143   2.007   1_556  S
O136        C149   1.261       .  A
O136       Co636   1.968   1_455  S
O137        C150   1.257   1_554  A
O137       Co145   2.022       .  S
O138        C150   1.243       .  A
O138       Co143   1.965   1_556  S
O139        C149   1.271       .  A
O139       Co142   2.017   1_556  S
O140        C147   1.256   1_554  A
O140       Co637   2.012   1_455  S
O141        C148   1.262       .  A
O141       Co144   1.972       .  S
Co142       O638   1.939   1_454  S
Co143       O146   1.928   1_554  S
Co144       O621   2.028       .  S
Co144       O628   1.974       .  S
Co144       O146   2.111       .  S
Co145       O617   2.093       .  S
Co145       O632   2.012       .  S
Co145       O146   2.266   1_554  S
O146       Co634   1.937   1_556  S
C147        C157   1.441       .  S
C148        C208   1.471       .  S
C149        C221   1.474       .  S
C150        C152   1.450       .  S
C151        C152   1.216       .  T
C153        C154   1.220       .  T
C155        C156   1.217       .  T
C157        C158   1.211       .  T
C159        C160   1.405       .  A
C159        C164   1.400       .  A
C159        H165   1.083       .  S
C160        C161   1.397       .  A
C161        C162   1.389       .  A
C161        H166   1.075       .  S
C162        C163   1.403       .  A
C162        H167   1.083       .  S
C163        C164   1.405       .  A
C164        H168   1.083       .  S
C169        C170   1.411       .  A
C169        C174   1.400       .  A
C169        H175   1.081       .  S
C170        C171   1.409       .  A
C171        C172   1.393       .  A
C171        H176   1.075       .  S
C172        C173   1.398       .  A
C172        H177   1.084       .  S
C173        C174   1.402       .  A
C174        H178   1.083       .  S
C179        C180   1.400       .  A
C179        C184   1.387       .  A
C179        H185   1.083       .  S
C180        C181   1.414       .  A
C181        C182   1.406       .  A
C181        H186   1.083       .  S
C182        C183   1.404       .  A
C182        H187   1.084       .  S
C183        C184   1.398       .  A
C184        H188   1.083       .  S
C189        C190   1.401       .  A
C189        C194   1.391       .  A
C189        H195   1.084       .  S
C190        C191   1.396       .  A
C191        C192   1.397       .  A
C191        H196   1.083       .  S
C192        C193   1.410       .  A
C192        H197   1.077       .  S
C193        C194   1.410       .  A
C194        H198   1.084       .  S
C199        C200   1.202       .  T
C201        C202   1.203       .  T
C203        C204   1.200       .  T
C205        C206   1.207       .  T
C207        C208   1.404       .  A
C207        C212   1.396       .  A
C207        H213   1.083       .  S
C208        C209   1.401       .  A
C209        C210   1.398       .  A
C209        H214   1.083       .  S
C210        C211   1.408       .  A
C210        H215   1.081       .  S
C211        C212   1.402       .  A
C212        H216   1.083       .  S
C217        C218   1.397       .  A
C217        C222   1.397       .  A
C217        H223   1.083       .  S
C218        C219   1.402       .  A
C219        C220   1.396       .  A
C219        H224   1.083       .  S
C220        C221   1.404       .  A
C220        H225   1.083       .  S
C221        C222   1.408       .  A
C222        H226   1.083       .  S
C227        C228   1.401       .  A
C227        C232   1.399       .  A
C227        H233   1.083       .  S
C228        C229   1.409       .  A
C229        C230   1.399       .  A
C229        H234   1.083       .  S
C230        C231   1.407       .  A
C230        H235   1.078       .  S
C231        C232   1.412       .  A
C232        H236   1.083       .  S
C237        C238   1.408       .  A
C237        C242   1.390       .  A
C237        H243   1.082       .  S
C238        C239   1.407       .  A
C239        C240   1.406       .  A
C239        H244   1.082       .  S
C240        C241   1.407       .  A
C240        H245   1.083       .  S
C241        C242   1.399       .  A
C242        H246   1.084       .  S
C247        C248   1.535       .  S
C247        C253   1.527       .  S
C247        C251   1.551       .  S
C247        C477   1.528       .  S
C248        H255   1.086       .  S
C248        C249   1.364       .  D
C249        C250   1.535       .  S
C249        C464   1.467       .  S
C250        C254   1.541       .  S
C250        C252   1.535       .  S
C250        H256   1.110       .  S
C251        H257   1.082       .  S
C251        C252   1.374       .  D
C252        C457   1.484       .  S
C253        H258   1.086       .  S
C253        C254   1.362       .  D
C254        C484   1.490       .  S
O259        C267   1.253       .  A
O259       Co279   1.970       .  S
O260        C268   1.266       .  A
O260       Co280   2.015       .  S
O261        C269   1.265       .  A
O261       Co281   1.994       .  S
O262       Co282   2.091   1_545  S
O263        C269   1.259       .  A
O263       Co280   1.970       .  S
O264        C270   1.271       .  A
O264       Co279   1.867       .  S
O265        C268   1.244       .  A
O265       Co282   1.960       .  S
O266        C267   1.262       .  A
C267        C452   1.435       .  S
C268        C426   1.478       .  S
C269        C445   1.427       .  S
C270        C436   1.459       .  S
O271        C284   1.260       .  A
O271       Co279   1.997       .  S
O272        C285   1.273       .  A
O272       Co280   1.987       .  S
O273        C286   1.270       .  A
O274        C287   1.302       .  A
O274       Co282   2.094       .  S
O275        C287   1.264       .  A
O275       Co280   1.871       .  S
O276        C286   1.276       .  A
O276       Co279   2.010       .  S
O277        C284   1.247       .  A
O278        C285   1.273       .  A
O278       Co281   1.999       .  S
Co280       O283   1.909       .  S
Co281       O283   2.038       .  S
Co282       O283   2.127       .  S
C284        C448   1.426       .  S
C285        C474   1.485       .  S
C286        C487   1.475       .  S
C287        C450   1.423       .  S
N288        C293   1.347       .  A
N288        C784   1.347       .  A
N288        H320   1.053       .  S
N289        C296   1.349       .  A
N289        C297   1.348       .  A
N290        C295   1.349       .  A
N290        C786   1.350       .  A
N290        H321   1.053       .  S
N291        C298   1.351       .  A
N291        C299   1.352       .  A
C292        N780   1.349   1_455  A
C292        C792   1.389       .  A
C292        C308   1.407       .  A
C293        C309   1.404       .  A
C293        C301   1.387       .  A
C294        N782   1.351   1_455  A
C294        C794   1.387       .  A
C294        C311   1.410       .  A
C295        C310   1.410       .  A
C295        C303   1.389       .  A
C296        C308   1.409       .  A
C296        C304   1.387       .  A
C297        C311   1.409       .  A
C297        C305   1.387       .  A
C298        C306   1.387       .  A
C298        C309   1.412       .  A
C299        C307   1.387       .  A
C299        C310   1.415       .  A
C300        C784   1.390       .  A
C300        C301   1.371       .  A
C300        H804   1.083       .  S
C301        H313   1.083       .  S
C302        C786   1.386       .  A
C302        C303   1.372       .  A
C302        H806   1.082       .  S
C303        H315   1.082       .  S
C304        C305   1.376       .  A
C304        H316   1.082       .  S
C305        H317   1.083       .  S
C306        C307   1.379       .  A
C306        H318   1.083       .  S
C307        H319   1.082       .  S
C308        C449   1.440       .  S
C309        C446   1.443       .  S
C310        C451   1.449       .  S
C311        C447   1.445       .  S
H312        C792   1.082       .  S
H314        C794   1.082       .  S
C322        C323   1.546       .  S
C322        C328   1.531       .  S
C322        C326   1.531       .  S
C322        C439   1.521       .  S
C323        H330   1.078       .  S
C323        C324   1.376       .  D
C324        C325   1.546       .  S
C324        C416   1.500       .  S
C325        C329   1.530       .  S
C325        C327   1.542       .  S
C325        H331   1.106       .  S
C326        H332   1.087       .  S
C326        C327   1.361       .  D
C327        C406   1.476       .  S
C328        H333   1.087       .  S
C328        C329   1.360       .  D
C329        C429   1.473       .  S
N334        C339   1.360       .  A
N334        C338   1.361       .  A
N334        H366   1.039       .  S
N335        C342   1.353       .  A
N336        C341   1.357       .  A
N336        C340   1.355       .  A
N336        H367   1.038   1_556  S
N337        C344   1.353       .  A
C338        C346   1.387       .  A
C338        C354   1.430       .  A
C339        C355   1.430       .  A
C339        C347   1.388       .  A
C340        C348   1.388       .  A
C340        C357   1.421       .  A
C341        C356   1.422       .  A
C341        C349   1.387       .  A
C342        C354   1.413       .  A
C342        C350   1.387       .  A
C343        C357   1.414   1_554  A
C344        C352   1.388       .  A
C344        C355   1.416       .  A
C345        C356   1.415   1_554  A
C346        C347   1.387       .  A
C346        H358   1.082       .  S
C347        H359   1.083       .  S
C348        C349   1.382       .  A
C348        H360   1.082       .  S
C349        H361   1.082       .  S
C350        C351   1.370       .  A
C350        H362   1.082       .  S
C352        C353   1.370       .  A
C352        H364   1.082       .  S
C354        C399   1.471       .  S
C355        C402   1.467       .  S
C356        C397   1.465       .  S
C357        C404   1.458       .  S
O368        C376   1.256       .  A
O368       Co388   1.983       .  S
O369        C377   1.270       .  A
O369       Co389   1.876       .  S
O370        C378   1.264   1_556  A
O370       Co390   2.025       .  S
O371        C379   1.300       .  A
O371       Co883   2.085   1_455  S
O372        C378   1.256       .  A
O372       Co389   1.986       .  S
O373        C379   1.271       .  A
O373       Co388   1.882       .  S
O374        C377   1.301       .  A
O374       Co391   2.084       .  S
O375        C376   1.264   1_556  A
O375       Co882   2.028   1_455  S
C376        C400   1.457       .  S
C377        C409   1.473       .  S
C378        C401   1.453       .  S
C379        C419   1.471       .  S
O380        C393   1.243       .  A
O380       Co388   1.959   1_556  S
O381        C394   1.268       .  A
O381       Co389   2.007   1_556  S
O382        C395   1.261       .  A
O382       Co882   1.968   1_455  S
O383        C396   1.257   1_554  A
O383       Co391   2.021       .  S
O384        C396   1.243       .  A
O384       Co389   1.965   1_556  S
O385        C395   1.271       .  A
O385       Co388   2.017   1_556  S
O386        C393   1.256   1_554  A
O386       Co883   2.011   1_455  S
O387        C394   1.262       .  A
O387       Co390   1.972       .  S
Co388       O884   1.940   1_454  S
Co389       O392   1.929   1_554  S
Co390       O867   2.028       .  S
Co390       O874   1.974       .  S
Co390       O392   2.111       .  S
Co391       O863   2.093       .  S
Co391       O878   2.012       .  S
Co391       O392   2.265   1_554  S
O392       Co880   1.938   1_556  S
C393        C403   1.441       .  S
C394        C454   1.471       .  S
C395        C467   1.474       .  S
C396        C398   1.449       .  S
C397        C398   1.216       .  T
C399        C400   1.220       .  T
C401        C402   1.218       .  T
C403        C404   1.211       .  T
C405        C406   1.405       .  A
C405        C410   1.400       .  A
C405        H411   1.083       .  S
C406        C407   1.398       .  A
C407        C408   1.389       .  A
C407        H412   1.075       .  S
C408        C409   1.403       .  A
C408        H413   1.083       .  S
C409        C410   1.405       .  A
C410        H414   1.083       .  S
C415        C416   1.411       .  A
C415        C420   1.400       .  A
C415        H421   1.081       .  S
C416        C417   1.409       .  A
C417        C418   1.393       .  A
C417        H422   1.075       .  S
C418        C419   1.398       .  A
C418        H423   1.084       .  S
C419        C420   1.402       .  A
C420        H424   1.083       .  S
C425        C426   1.400       .  A
C425        C430   1.387       .  A
C425        H431   1.083       .  S
C426        C427   1.414       .  A
C427        C428   1.406       .  A
C427        H432   1.083       .  S
C428        C429   1.404       .  A
C428        H433   1.084       .  S
C429        C430   1.398       .  A
C430        H434   1.083       .  S
C435        C436   1.401       .  A
C435        C440   1.391       .  A
C435        H441   1.084       .  S
C436        C437   1.396       .  A
C437        C438   1.397       .  A
C437        H442   1.083       .  S
C438        C439   1.410       .  A
C438        H443   1.077       .  S
C439        C440   1.410       .  A
C440        H444   1.084       .  S
C445        C446   1.202       .  T
C447        C448   1.202       .  T
C449        C450   1.200       .  T
C451        C452   1.207       .  T
C453        C454   1.405       .  A
C453        C458   1.396       .  A
C453        H459   1.083       .  S
C454        C455   1.401       .  A
C455        C456   1.398       .  A
C455        H460   1.083       .  S
C456        C457   1.408       .  A
C456        H461   1.081       .  S
C457        C458   1.402       .  A
C458        H462   1.083       .  S
C463        C464   1.397       .  A
C463        C468   1.397       .  A
C463        H469   1.083       .  S
C464        C465   1.402       .  A
C465        C466   1.396       .  A
C465        H470   1.083       .  S
C466        C467   1.404       .  A
C466        H471   1.083       .  S
C467        C468   1.408       .  A
C468        H472   1.083       .  S
C473        C474   1.401       .  A
C473        C478   1.399       .  A
C473        H479   1.083       .  S
C474        C475   1.409       .  A
C475        C476   1.399       .  A
C475        H480   1.083       .  S
C476        C477   1.407       .  A
C476        H481   1.078       .  S
C477        C478   1.412       .  A
C478        H482   1.083       .  S
C483        C484   1.408       .  A
C483        C488   1.390       .  A
C483        H489   1.082       .  S
C484        C485   1.407       .  A
C485        C486   1.406       .  A
C485        H490   1.082       .  S
C486        C487   1.407       .  A
C486        H491   1.083       .  S
C487        C488   1.399       .  A
C488        H492   1.084       .  S
C493        C494   1.535       .  S
C493        C499   1.527       .  S
C493        C497   1.551       .  S
C493        C723   1.528       .  S
C494        H501   1.086       .  S
C494        C495   1.364       .  D
C495        C496   1.534       .  S
C495        C710   1.467       .  S
C496        C500   1.540       .  S
C496        C498   1.536       .  S
C496        H502   1.110       .  S
C497        H503   1.082       .  S
C497        C498   1.374       .  D
C498        C703   1.483       .  S
C499        H504   1.086       .  S
C499        C500   1.362       .  D
C500        C730   1.487       .  S
O505        C513   1.252       .  A
O505       Co525   1.968       .  S
O506        C514   1.268       .  A
O506       Co526   2.021       .  S
O507        C515   1.266       .  A
O507       Co527   1.997       .  S
O508        C762   1.303       .  A
O508       Co528   2.097       .  S
O509        C515   1.258       .  A
O509       Co526   1.968       .  S
O510        C516   1.270       .  A
O510       Co525   1.867       .  S
O511        C514   1.243       .  A
O511       Co528   1.954       .  S
O512        C513   1.263       .  A
O512       Co773   2.010   1_545  S
C513        C698   1.435       .  S
C514        C672   1.478       .  S
C515        C691   1.428       .  S
C516        O754   1.303       .  A
C516        C682   1.464       .  S
O517        C530   1.260       .  A
O517       Co525   1.999       .  S
O518        C531   1.274       .  A
O518       Co526   1.990       .  S
O519        C532   1.269       .  A
O519       Co773   1.990   1_545  S
O520        C533   1.302       .  A
O520       Co528   2.091       .  S
O521        C533   1.264       .  A
O521       Co526   1.866       .  S
O522        C532   1.276       .  A
O522       Co525   2.008       .  S
O523        C530   1.246       .  A
O523       Co774   1.947   1_545  S
O524        C531   1.273       .  A
O524       Co527   2.000       .  S
Co525       O775   1.894   1_545  S
Co526       O529   1.910       .  S
Co527       O758   2.010       .  S
Co527       O765   1.990       .  S
Co527       O529   2.040       .  S
Co528       O769   1.946       .  S
Co528       O529   2.123       .  S
O529       Co771   1.893       .  S
C530        C694   1.427       .  S
C531        C720   1.487       .  S
C532        C733   1.473       .  S
C533        C696   1.418       .  S
N534        C539   1.348       .  A
N534        H566   1.044       .  S
N535        C542   1.348       .  A
N535        C543   1.349       .  A
N536        C541   1.350       .  A
N536        H567   1.043       .  S
N537        C544   1.351       .  A
N537        C545   1.352       .  A
C538        C554   1.407       .  A
C539        C555   1.403       .  A
C539        C547   1.386       .  A
C540        C557   1.409       .  A
C541        C556   1.410       .  A
C541        C549   1.389       .  A
C542        C554   1.409       .  A
C542        C550   1.387       .  A
C543        C557   1.409       .  A
C543        C551   1.387       .  A
C544        C552   1.387       .  A
C544        C555   1.413       .  A
C545        C553   1.387       .  A
C545        C556   1.415       .  A
C546        C547   1.372   1_455  A
C547        H559   1.083       .  S
C548        C549   1.372   1_455  A
C549        H561   1.082       .  S
C550        C551   1.375       .  A
C550        H562   1.083       .  S
C551        H563   1.083       .  S
C552        C553   1.380       .  A
C552        H564   1.083       .  S
C553        H565   1.082       .  S
C554        C695   1.436       .  S
C555        C692   1.443       .  S
C556        C697   1.449       .  S
C557        C693   1.446       .  S
C568        C569   1.549       .  S
C568        C574   1.534       .  S
C568        C572   1.532       .  S
C568        C685   1.524       .  S
C569        H576   1.079       .  S
C569        C570   1.377       .  D
C570        C571   1.544       .  S
C570        C662   1.503       .  S
C571        C575   1.530       .  S
C571        C573   1.538       .  S
C571        H577   1.107       .  S
C572        H578   1.087       .  S
C572        C573   1.359       .  D
C573        C652   1.468       .  S
C574        H579   1.087       .  S
C574        C575   1.361       .  D
C575        C675   1.471       .  S
N580        C585   1.360       .  A
N580        C584   1.362       .  A
N580        H612   1.034       .  S
N581        C588   1.354       .  A
N581        C835   1.353       .  A
N582        C587   1.358       .  A
N582        C586   1.356       .  A
N582        H613   1.034   1_546  S
N583        C590   1.354       .  A
N583        C837   1.357       .  A
C584        C592   1.388       .  A
C584        C600   1.431       .  A
C585        C601   1.432       .  A
C585        C593   1.389       .  A
C586        C594   1.388       .  A
C586        C603   1.423       .  A
C587        C602   1.423       .  A
C587        C595   1.387       .  A
C588        C600   1.416       .  A
C588        C596   1.388       .  A
C589        N827   1.353       .  A
C589        C603   1.415   1_564  A
C589        C843   1.388       .  A
C590        C598   1.389       .  A
C590        C601   1.419       .  A
C591        N829   1.357       .  A
C591        C845   1.385       .  A
C591        C602   1.417   1_564  A
C592        C593   1.386       .  A
C592        H604   1.083       .  S
C593        H605   1.083       .  S
C594        C595   1.381       .  A
C594        H606   1.082       .  S
C595        H607   1.082       .  S
C596        C597   1.368       .  A
C596        H608   1.082       .  S
C597        C835   1.388       .  A
C597        H855   1.082       .  S
C598        C599   1.368       .  A
C598        H610   1.082       .  S
C599        C837   1.385       .  A
C599        H857   1.082       .  S
C600        C645   1.471       .  S
C601        C648   1.467       .  S
C602        C643   1.468       .  S
C603        C650   1.458       .  S
H609        C843   1.082   1_545  S
H611        C845   1.082       .  S
O614        C622   1.256       .  A
O614       Co634   1.981       .  S
O615        C623   1.269       .  A
O615       Co635   1.873       .  S
O616        C624   1.264   1_556  A
O616       Co636   2.025       .  S
O617        C625   1.302       .  A
O618        C624   1.254       .  A
O618       Co635   1.985       .  S
O619        C625   1.270       .  A
O619       Co634   1.884       .  S
O620        C623   1.300       .  A
O620       Co637   2.081       .  S
O621        C622   1.265   1_556  A
C622        C646   1.456       .  S
C623        C655   1.471       .  S
C624        C647   1.452       .  S
C625        C665   1.477       .  S
O626        C639   1.242       .  A
O626       Co634   1.957   1_556  S
O627        C640   1.268       .  A
O627       Co635   2.008   1_556  S
O628        C641   1.262       .  A
O629        C642   1.257   1_554  A
O629       Co637   2.023       .  S
O630        C642   1.244       .  A
O630       Co635   1.967   1_556  S
O631        C641   1.270       .  A
O631       Co634   2.012   1_556  S
O632        C639   1.256   1_554  A
O633        C640   1.260       .  A
O633       Co636   1.967       .  S
Co635       O638   1.927   1_554  S
Co636       O638   2.110       .  S
Co637       O638   2.265   1_554  S
C639        C649   1.440       .  S
C640        C700   1.470       .  S
C641        C713   1.474       .  S
C642        C644   1.452       .  S
C643        C644   1.217       .  T
C645        C646   1.220       .  T
C647        C648   1.217       .  T
C649        C650   1.210       .  T
C651        C652   1.404       .  A
C651        C656   1.401       .  A
C651        H657   1.083       .  S
C652        C653   1.395       .  A
C653        C654   1.385       .  A
C653        H658   1.077       .  S
C654        C655   1.403       .  A
C654        H659   1.083       .  S
C655        C656   1.407       .  A
C656        H660   1.083       .  S
C661        C662   1.411       .  A
C661        C666   1.401       .  A
C661        H667   1.081       .  S
C662        C663   1.411       .  A
C663        C664   1.396       .  A
C663        H668   1.077       .  S
C664        C665   1.400       .  A
C664        H669   1.084       .  S
C665        C666   1.403       .  A
C666        H670   1.083       .  S
C671        C672   1.399       .  A
C671        C676   1.390       .  A
C671        H677   1.083       .  S
C672        C673   1.415       .  A
C673        C674   1.404       .  A
C673        H678   1.083       .  S
C674        C675   1.402       .  A
C674        H679   1.084       .  S
C675        C676   1.399       .  A
C676        H680   1.083       .  S
C681        C682   1.402       .  A
C681        C686   1.391       .  A
C681        H687   1.084       .  S
C682        C683   1.397       .  A
C683        C684   1.399       .  A
C683        H688   1.083       .  S
C684        C685   1.411       .  A
C684        H689   1.077       .  S
C685        C686   1.409       .  A
C686        H690   1.084       .  S
C691        C692   1.203       .  T
C693        C694   1.204       .  T
C695        C696   1.197       .  T
C697        C698   1.207       .  T
C699        C700   1.405       .  A
C699        C704   1.396       .  A
C699        H705   1.083       .  S
C700        C701   1.400       .  A
C701        C702   1.397       .  A
C701        H706   1.083       .  S
C702        C703   1.408       .  A
C702        H707   1.081       .  S
C703        C704   1.402       .  A
C704        H708   1.083       .  S
C709        C710   1.398       .  A
C709        C714   1.398       .  A
C709        H715   1.083       .  S
C710        C711   1.401       .  A
C711        C712   1.395       .  A
C711        H716   1.083       .  S
C712        C713   1.404       .  A
C712        H717   1.083       .  S
C713        C714   1.408       .  A
C714        H718   1.083       .  S
C719        C720   1.402       .  A
C719        C724   1.399       .  A
C719        H725   1.083       .  S
C720        C721   1.409       .  A
C721        C722   1.399       .  A
C721        H726   1.083       .  S
C722        C723   1.407       .  A
C722        H727   1.078       .  S
C723        C724   1.412       .  A
C724        H728   1.083       .  S
C729        C730   1.407       .  A
C729        C734   1.389       .  A
C729        H735   1.082       .  S
C730        C731   1.406       .  A
C731        C732   1.406       .  A
C731        H736   1.083       .  S
C732        C733   1.407       .  A
C732        H737   1.083       .  S
C733        C734   1.398       .  A
C734        H738   1.084       .  S
C739        C740   1.535       .  S
C739        C745   1.527       .  S
C739        C743   1.551       .  S
C739        C969   1.529       .  S
C740        H747   1.086       .  S
C740        C741   1.364       .  D
C741        C742   1.534       .  S
C741        C956   1.467       .  S
C742        C746   1.539       .  S
C742        C744   1.536       .  S
C742        H748   1.110       .  S
C743        H749   1.082       .  S
C743        C744   1.374       .  D
C744        C949   1.484       .  S
C745        H750   1.086       .  S
C745        C746   1.362       .  D
C746        C976   1.488       .  S
O751        C759   1.252       .  A
O751       Co771   1.968       .  S
O752        C760   1.268       .  A
O752       Co772   2.021       .  S
O753        C761   1.266       .  A
O753       Co773   1.997       .  S
O754       Co774   2.097   1_545  S
O755        C761   1.258       .  A
O755       Co772   1.968       .  S
O756        C762   1.270       .  A
O756       Co771   1.867       .  S
O757        C760   1.243       .  A
O757       Co774   1.954       .  S
O758        C759   1.263       .  A
C759        C944   1.434       .  S
C760        C918   1.478       .  S
C761        C937   1.428       .  S
C762        C928   1.464       .  S
O763        C776   1.260       .  A
O763       Co771   1.999       .  S
O764        C777   1.274       .  A
O764       Co772   1.991       .  S
O765        C778   1.269       .  A
O766        C779   1.302       .  A
O766       Co774   2.091       .  S
O767        C779   1.264       .  A
O767       Co772   1.866       .  S
O768        C778   1.276       .  A
O768       Co771   2.008       .  S
O769        C776   1.246       .  A
O770        C777   1.273       .  A
O770       Co773   2.000       .  S
Co772       O775   1.910       .  S
Co773       O775   2.040       .  S
Co774       O775   2.124       .  S
C776        C940   1.428       .  S
C777        C966   1.487       .  S
C778        C979   1.473       .  S
C779        C942   1.417       .  S
N780        C785   1.348       .  A
N780        H812   1.044       .  S
N781        C788   1.348       .  A
N781        C789   1.349       .  A
N782        C787   1.350       .  A
N782        H813   1.043       .  S
N783        C790   1.351       .  A
N783        C791   1.352       .  A
C784        C800   1.407       .  A
C785        C801   1.403       .  A
C785        C793   1.386       .  A
C786        C803   1.409       .  A
C787        C802   1.410       .  A
C787        C795   1.389       .  A
C788        C800   1.409       .  A
C788        C796   1.387       .  A
C789        C803   1.409       .  A
C789        C797   1.387       .  A
C790        C798   1.387       .  A
C790        C801   1.413       .  A
C791        C799   1.387       .  A
C791        C802   1.415       .  A
C792        C793   1.371   1_455  A
C793        H805   1.083       .  S
C794        C795   1.372   1_455  A
C795        H807   1.082       .  S
C796        C797   1.375       .  A
C796        H808   1.083       .  S
C797        H809   1.083       .  S
C798        C799   1.380       .  A
C798        H810   1.083       .  S
C799        H811   1.082       .  S
C800        C941   1.436       .  S
C801        C938   1.443       .  S
C802        C943   1.449       .  S
C803        C939   1.446       .  S
C814        C815   1.549       .  S
C814        C820   1.533       .  S
C814        C818   1.532       .  S
C814        C931   1.524       .  S
C815        H822   1.079       .  S
C815        C816   1.377       .  D
C816        C817   1.545       .  S
C816        C908   1.504       .  S
C817        C821   1.530       .  S
C817        C819   1.539       .  S
C817        H823   1.106       .  S
C818        H824   1.087       .  S
C818        C819   1.360       .  D
C819        C898   1.470       .  S
C820        H825   1.087       .  S
C820        C821   1.361       .  D
C821        C921   1.471       .  S
N826        C831   1.360       .  A
N826        C830   1.362       .  A
N826        H858   1.034       .  S
N827        C834   1.354       .  A
N828        C833   1.358       .  A
N828        C832   1.356       .  A
N828        H859   1.033   1_556  S
N829        C836   1.354       .  A
C830        C838   1.388       .  A
C830        C846   1.432       .  A
C831        C847   1.432       .  A
C831        C839   1.389       .  A
C832        C840   1.388       .  A
C832        C849   1.423       .  A
C833        C848   1.423       .  A
C833        C841   1.387       .  A
C834        C846   1.416       .  A
C834        C842   1.388       .  A
C835        C849   1.415   1_554  A
C836        C844   1.389       .  A
C836        C847   1.419       .  A
C837        C848   1.417   1_554  A
C838        C839   1.386       .  A
C838        H850   1.083       .  S
C839        H851   1.083       .  S
C840        C841   1.381       .  A
C840        H852   1.082       .  S
C841        H853   1.082       .  S
C842        C843   1.368       .  A
C842        H854   1.082       .  S
C844        C845   1.368       .  A
C844        H856   1.082       .  S
C846        C891   1.471       .  S
C847        C894   1.467       .  S
C848        C889   1.468       .  S
C849        C896   1.458       .  S
O860        C868   1.256       .  A
O860       Co880   1.980       .  S
O861        C869   1.270       .  A
O861       Co881   1.874       .  S
O862        C870   1.264   1_556  A
O862       Co882   2.025       .  S
O863        C871   1.302       .  A
O864        C870   1.255       .  A
O864       Co881   1.985       .  S
O865        C871   1.270       .  A
O865       Co880   1.884       .  S
O866        C869   1.299       .  A
O866       Co883   2.079       .  S
O867        C868   1.265   1_556  A
C868        C892   1.456       .  S
C869        C901   1.470       .  S
C870        C893   1.452       .  S
C871        C911   1.476       .  S
O872        C885   1.242       .  A
O872       Co880   1.958   1_556  S
O873        C886   1.268       .  A
O873       Co881   2.009   1_556  S
O874        C887   1.262       .  A
O875        C888   1.257   1_554  A
O875       Co883   2.024       .  S
O876        C888   1.244       .  A
O876       Co881   1.967   1_556  S
O877        C887   1.270       .  A
O877       Co880   2.012   1_556  S
O878        C885   1.256   1_554  A
O879        C886   1.260       .  A
O879       Co882   1.967       .  S
Co881       O884   1.928   1_554  S
Co882       O884   2.110       .  S
Co883       O884   2.264   1_554  S
C885        C895   1.441       .  S
C886        C946   1.470       .  S
C887        C959   1.474       .  S
C888        C890   1.452       .  S
C889        C890   1.217       .  T
C891        C892   1.220       .  T
C893        C894   1.217       .  T
C895        C896   1.211       .  T
C897        C898   1.404       .  A
C897        C902   1.400       .  A
C897        H903   1.083       .  S
C898        C899   1.396       .  A
C899        C900   1.385       .  A
C899        H904   1.075       .  S
C900        C901   1.402       .  A
C900        H905   1.083       .  S
C901        C902   1.407       .  A
C902        H906   1.083       .  S
C907        C908   1.411       .  A
C907        C912   1.401       .  A
C907        H913   1.081       .  S
C908        C909   1.411       .  A
C909        C910   1.396       .  A
C909        H914   1.076       .  S
C910        C911   1.400       .  A
C910        H915   1.084       .  S
C911        C912   1.402       .  A
C912        H916   1.083       .  S
C917        C918   1.399       .  A
C917        C922   1.390       .  A
C917        H923   1.083       .  S
C918        C919   1.415       .  A
C919        C920   1.404       .  A
C919        H924   1.083       .  S
C920        C921   1.402       .  A
C920        H925   1.084       .  S
C921        C922   1.399       .  A
C922        H926   1.083       .  S
C927        C928   1.402       .  A
C927        C932   1.391       .  A
C927        H933   1.084       .  S
C928        C929   1.397       .  A
C929        C930   1.399       .  A
C929        H934   1.083       .  S
C930        C931   1.411       .  A
C930        H935   1.077       .  S
C931        C932   1.409       .  A
C932        H936   1.084       .  S
C937        C938   1.203       .  T
C939        C940   1.204       .  T
C941        C942   1.197       .  T
C943        C944   1.207       .  T
C945        C946   1.405       .  A
C945        C950   1.396       .  A
C945        H951   1.083       .  S
C946        C947   1.400       .  A
C947        C948   1.397       .  A
C947        H952   1.083       .  S
C948        C949   1.408       .  A
C948        H953   1.081       .  S
C949        C950   1.402       .  A
C950        H954   1.083       .  S
C955        C956   1.398       .  A
C955        C960   1.398       .  A
C955        H961   1.083       .  S
C956        C957   1.401       .  A
C957        C958   1.395       .  A
C957        H962   1.083       .  S
C958        C959   1.404       .  A
C958        H963   1.083       .  S
C959        C960   1.408       .  A
C960        H964   1.083       .  S
C965        C966   1.402       .  A
C965        C970   1.399       .  A
C965        H971   1.083       .  S
C966        C967   1.410       .  A
C967        C968   1.400       .  A
C967        H972   1.083       .  S
C968        C969   1.407       .  A
C968        H973   1.078       .  S
C969        C970   1.412       .  A
C970        H974   1.083       .  S
C975        C976   1.407       .  A
C975        C980   1.389       .  A
C975        H981   1.082       .  S
C976        C977   1.407       .  A
C977        C978   1.406       .  A
C977        H982   1.083       .  S
C978        C979   1.407       .  A
C978        H983   1.083       .  S
C979        C980   1.398       .  A
C980        H984   1.084       .  S
