geometry optimzed in LAMMPS
_audit_creation_date              2020-12-01 
_audit_creation_method            'lammps2cif' 
_symmetry_space_group_name_H-M    'P1' 
_symmetry_Int_Tables_number       1 
_symmetry_cell_setting            triclinic 
loop_ 
_symmetry_equiv_pos_as_xyz 
  x,y,z 
_cell_length_a                    30.02753029 
_cell_length_b                    30.03183890320054 
_cell_length_c                    88.3813182253818 
_cell_angle_alpha                 89.87675045251483 
_cell_angle_beta                  90.13922383547991 
_cell_angle_gamma                 120.22161757469607 
loop_ 
_atom_site_label 
_atom_site_type_symbol 
_atom_site_fract_x 
_atom_site_fract_y 
_atom_site_fract_z 
_atom_site_charge 
O1          O  0.97708961  0.67859896  0.25944240    -0.72700
O2          O  0.98618436  0.81249050  0.25154163    -0.73700
O3          O  0.96689572  0.72782524  0.23323628    -0.62300
O4          O  0.00127831  0.76728932  0.27775064    -0.70700
O5          O  0.08345293  0.79990831  0.27204519    -0.70300
O6          O  0.05059074  0.76342953  0.22878757    -0.61500
O7          O  0.06992663  0.84996503  0.24666925    -0.74000
O8          O  0.05949371  0.71048953  0.25410004    -0.72800
Cu9        Cu  0.98003567  0.74521258  0.25572964     1.04600
Cu10       Cu  0.06879833  0.78206223  0.25028789     1.04300
C11         C  0.01536945  0.67187642  0.25755564     0.93500
C12         C  0.02840906  0.85201489  0.24773188     0.92600
C13         C  0.00431022  0.74020447  0.22402303     0.84800
C14         C  0.04882303  0.79161058  0.28177584     0.91000
O15         O  0.16970486  0.99555295  0.41569000    -0.72700
O16         O  0.29224410  0.98086421  0.41123790    -0.73700
O17         O  0.21216846  0.96877908  0.39117567    -0.62300
O18         O  0.24568561  0.00374618  0.43594409    -0.70700
O19         O  0.19950158  0.92024448  0.44119211    -0.70300
O20         O  0.16630974  0.88667713  0.39775287    -0.61500
O21         O  0.24761360  0.89787312  0.41723059    -0.74000
O22         O  0.12107019  0.91313869  0.42179526    -0.72800
Cu23       Cu  0.23174189  0.99007234  0.41327560     1.04600
Cu24       Cu  0.18205100  0.90154001  0.41964356     1.04300
C25         C  0.12636419  0.95779718  0.41967231     0.93500
C26         C  0.29017021  0.93801453  0.41354041     0.92600
C27         C  0.18295474  0.92130808  0.38753713     0.84800
C28         C  0.22639418  0.96676362  0.44558964     0.91000
O29         O  0.97545023  0.30033815  0.26304647    -0.72700
O30         O  0.98258033  0.17375751  0.25627422    -0.73700
O31         O  0.99858257  0.25711219  0.23760053    -0.62300
O32         O  0.95524437  0.21332837  0.28155314    -0.70700
O33         O  0.87439599  0.17424819  0.27382508    -0.70300
O34         O  0.91595370  0.21481523  0.23101151    -0.61500
O35         O  0.90030282  0.13017367  0.24936058    -0.74000
O36         O  0.89403966  0.26170449  0.25544939    -0.72800
Cu37       Cu  0.98075019  0.23765835  0.25990868     1.04600
Cu38       Cu  0.89324115  0.19382012  0.25223542     1.04300
C39         C  0.93487405  0.30213978  0.26006945     0.93500
C40         C  0.94352130  0.13234522  0.25169307     0.92600
C41         C  0.96331564  0.24192226  0.22744334     0.84800
C42         C  0.90694246  0.18556907  0.28449223     0.91000
O43         O  0.80174889  0.99114858  0.41982942    -0.72700
O44         O  0.66352255  0.97377334  0.41349253    -0.73700
O45         O  0.75081587  0.00028616  0.39427345    -0.62300
O46         O  0.71793932  0.96896289  0.43919213    -0.70700
O47         O  0.75020151  0.05251671  0.44313712    -0.70300
O48         O  0.78080287  0.08259674  0.39943429    -0.61500
O49         O  0.69315061  0.05631782  0.41828072    -0.74000
O50         O  0.83563418  0.07487833  0.42431506    -0.72800
Cu51       Cu  0.73223952  0.98061743  0.41651750     1.04600
Cu52       Cu  0.76592447  0.06944286  0.42141757     1.04300
C53         C  0.84037854  0.03506724  0.42284009     0.93500
C54         C  0.65543409  0.01120489  0.41531375     0.92600
C55         C  0.77294694  0.04745455  0.38993451     0.84800
C56         C  0.72950779  0.00665374  0.44822145     0.91000
O57         O  0.24967248  0.97265899  0.59434382    -0.72700
O58         O  0.11406202  0.96055742  0.58672194    -0.73700
O59         O  0.18591111  0.95063030  0.56831767    -0.62300
O60         O  0.17877954  0.98624446  0.61259253    -0.70700
O61         O  0.21716058  0.06825458  0.60598563    -0.70300
O62         O  0.22623216  0.03417186  0.56309592    -0.61500
O63         O  0.15133972  0.04280989  0.58019479    -0.74000
O64         O  0.29060639  0.05572591  0.58856071    -0.72800
Cu65       Cu  0.18080045  0.96466386  0.59073362     1.04600
Cu66       Cu  0.22266624  0.05312086  0.58430946     1.04300
C67         C  0.29163560  0.01507297  0.59238440     0.93500
C68         C  0.11055804  0.99898626  0.58221023     0.92600
C69         C  0.20770702  0.98772304  0.55876766     0.84800
C70         C  0.19666361  0.03362158  0.61619586     0.91000
O71         O  0.13253407  0.14943903  0.75313685    -0.72700
O72         O  0.25911859  0.28174805  0.74486906    -0.73700
O73         O  0.19209431  0.19411804  0.72675379    -0.62300
O74         O  0.20097649  0.23500347  0.77116113    -0.70700
O75         O  0.24430394  0.19487437  0.77578410    -0.70300
O76         O  0.24248812  0.16189037  0.73192388    -0.61500
O77         O  0.30784691  0.24824394  0.75084389    -0.74000
O78         O  0.17774771  0.11036940  0.75702284    -0.72800
Cu79       Cu  0.19459955  0.21633019  0.74875577     1.04600
Cu80       Cu  0.24482420  0.17760175  0.75401174     1.04300
C81         C  0.13460314  0.10919613  0.75632607     0.93500
C82         C  0.30344548  0.28717075  0.74722574     0.92600
C83         C  0.21626960  0.17131571  0.72241143     0.84800
C84         C  0.22361076  0.22034078  0.78055134     0.91000
O85         O  0.63620245  0.86912176  0.60729781    -0.72700
O86         O  0.64652153  0.91648130  0.56463476    -0.73700
O87         O  0.70361574  0.88541877  0.58262655    -0.62300
O88         O  0.57956250  0.90277699  0.58904605    -0.70700
O89         O  0.63220624  0.98341721  0.59625642    -0.70300
O90         O  0.75363985  0.96593052  0.59053728    -0.61500
O91         O  0.69892401  0.99736823  0.57149926    -0.74000
O92         O  0.68686397  0.94898477  0.61510417    -0.72800
Cu93       Cu  0.63947870  0.89062843  0.58570311     1.04600
Cu94       Cu  0.69446542  0.97671931  0.59364016     1.04300
C95         C  0.66071185  0.90057038  0.61798039     0.93500
C96         C  0.67544891  0.96379219  0.56111214     0.92600
C97         C  0.74829846  0.92383472  0.58549275     0.84800
C98         C  0.58679274  0.94645596  0.59353906     0.91000
O99         O  0.63666883  0.65770917  0.74397598    -0.72700
O100        O  0.76848039  0.78581381  0.75039158    -0.73700
O101        O  0.70442271  0.70048966  0.76883044    -0.62300
O102        O  0.69942356  0.74521608  0.72567184    -0.70700
O103        O  0.65564001  0.78175824  0.73373787    -0.70300
O104        O  0.66313485  0.74057676  0.77620444    -0.61500
O105        O  0.72818896  0.82699429  0.75783245    -0.74000
O106        O  0.59223954  0.69353420  0.75215317    -0.72800
Cu107      Cu  0.70361228  0.72099385  0.74690545     1.04600
Cu108      Cu  0.65825282  0.76212710  0.75522665     1.04300
C109        C  0.59380997  0.65428745  0.74719000     0.93500
C110        C  0.76977727  0.82635608  0.75515202     0.92600
C111        C  0.68467287  0.71435233  0.77934613     0.84800
C112        C  0.67688691  0.77103750  0.72296175     0.91000
O113        O  0.72441724  0.67304557  0.89766063    -0.72700
O114        O  0.75792184  0.67941751  0.94152511    -0.73700
O115        O  0.67140863  0.61108201  0.92326930    -0.62300
O116        O  0.80839944  0.74314349  0.91599691    -0.70700
O117        O  0.76807322  0.78719520  0.91959414    -0.70300
O118        O  0.63683627  0.65948193  0.92811379    -0.61500
O119        O  0.72363123  0.72844578  0.94612949    -0.74000
O120        O  0.68455525  0.71722103  0.90148001    -0.72800
Cu121      Cu  0.74178118  0.67492549  0.91949320     1.04600
Cu122      Cu  0.70185326  0.72451535  0.92400471     1.04300
C123        C  0.70030058  0.69462987  0.89247072     0.93500
C124        C  0.74725243  0.70531031  0.95073362     0.92600
C125        C  0.63215660  0.61508622  0.92679201     0.84800
C126        C  0.80882860  0.78602895  0.91654464     0.91000
O127        O  0.90794014  0.69639371  0.10730973    -0.72700
O128        O  0.86618712  0.69670871  0.06462811    -0.73700
O129        O  0.89299985  0.63326450  0.08196042    -0.62300
O130        O  0.88433857  0.76181740  0.09014804    -0.70700
O131        O  0.96740595  0.80886816  0.08435957    -0.70300
O132        O  0.97418223  0.68333768  0.07490669    -0.61500
O133        O  0.94734298  0.74767859  0.05783184    -0.74000
O134        O  0.99062003  0.74343085  0.10138152    -0.72800
Cu135      Cu  0.88498470  0.69534750  0.08618506     1.04600
Cu136      Cu  0.97271051  0.74748138  0.07933673     1.04300
C137        C  0.95516805  0.71887177  0.11121627     0.93500
C138        C  0.89931858  0.72217383  0.05439680     0.92600
C139        C  0.93572320  0.63854063  0.07724321     0.84800
C140        C  0.92566543  0.80564151  0.08888280     0.91000
O141        O  0.26170784  0.28018541  0.93086132    -0.72700
O142        O  0.13378652  0.15016113  0.92013613    -0.73700
O143        O  0.22430475  0.22005506  0.90409494    -0.62300
O144        O  0.16938405  0.21144399  0.94686790    -0.70700
O145        O  0.13460335  0.25741620  0.93923424    -0.70300
O146        O  0.18544650  0.26287802  0.89712667    -0.61500
O147        O  0.09483247  0.19341265  0.91337325    -0.74000
O148        O  0.22698373  0.32630384  0.92314544    -0.72800
Cu149      Cu  0.19860688  0.21398497  0.92577803     1.04600
Cu150      Cu  0.15930093  0.26168008  0.91799144     1.04300
C151        C  0.26532959  0.32377496  0.92851701     0.93500
C152        C  0.09426046  0.15083759  0.91517489     0.92600
C153        C  0.21221359  0.24210616  0.89376620     0.84800
C154        C  0.14235588  0.23264901  0.94965751     0.91000
O155        O  0.96228688  0.29978582  0.07841837    -0.72700
O156        O  0.95937214  0.16895896  0.08732804    -0.73700
O157        O  0.95310322  0.24340711  0.10533973    -0.62300
O158        O  0.97261736  0.22587199  0.06035330    -0.70700
O159        O  0.05719989  0.27112287  0.06390542    -0.70300
O160        O  0.03778278  0.28475457  0.10792594    -0.61500
O161        O  0.04445308  0.20984974  0.08984806    -0.74000
O162        O  0.04686277  0.34462120  0.08188662    -0.72800
Cu163      Cu  0.95892898  0.23314669  0.08269891     1.04600
Cu164      Cu  0.04952468  0.27918798  0.08597293     1.04300
C165        C  0.00406749  0.34298207  0.07924269     0.93500
C166        C  0.00063826  0.16808856  0.08991958     0.92600
C167        C  0.99324233  0.26659420  0.11379070     0.84800
C168        C  0.01867339  0.24531676  0.05521787     0.91000
C169        C  0.02939861  0.18772610  0.01775674    -0.22200
C170        C  0.06408781  0.23253968  0.00986975     0.09700
C171        C  0.08040236  0.28105825  0.01651102     0.10100
C172        C  0.06316357  0.28365846  0.03107820    -0.17200
C173        C  0.02919761  0.23895318  0.03917577    -0.27600
C174        C  0.01194549  0.19017571  0.03236471     0.18500
C175        C  0.08269074  0.22829786  0.99460294     0.12400
C176        C  0.11621475  0.33016098  0.00822264    -0.11900
H177        H  0.07680932  0.32098623  0.03629049     0.12700
C178        C  0.97727766  0.13991904  0.04031317    -0.22800
H179        H  0.01671994  0.15048532  0.01260704     0.08400
C180        C  0.12909379  0.22775755  0.99260995     0.04700
C181        C  0.14707120  0.22794183  0.97787242    -0.20000
C182        C  0.11995395  0.22908524  0.96501483    -0.12300
C183        C  0.07221726  0.22753593  0.96712073     0.13400
C184        C  0.05442682  0.22720747  0.98185966    -0.22700
C185        C  0.15978351  0.22738729  0.00605917    -0.05800
H186        H  0.18318939  0.22853853  0.97640273     0.14900
C187        C  0.03892408  0.22506136  0.95396970    -0.16000
H188        H  0.01857395  0.22704994  0.98348686     0.09300
H189        H  0.99675281  0.11684162  0.04097946     0.07100
H190        H  0.94096919  0.11780853  0.03378245     0.08300
H191        H  0.96723846  0.14483754  0.05198418     0.07400
H192        H  0.09805360  0.33191763  0.99745166     0.02200
H193        H  0.15304762  0.33151249  0.00568399     0.02700
H194        H  0.12513364  0.36479994  0.01499522     0.06200
H195        H  0.19500514  0.22682559  0.00256647     0.05200
H196        H  0.13583237  0.19261505  0.01304815    -0.00600
H197        H  0.17181952  0.26228866  0.01304967     0.00900
H198        H  0.00135700  0.21980275  0.95779659     0.04600
H199        H  0.03082117  0.19198500  0.94656448     0.06500
H200        H  0.05840773  0.26144968  0.94739041     0.07400
C201        C  0.01138810  0.47188492  0.08621751    -0.22200
C202        C  0.97746447  0.47047709  0.07505868     0.09700
C203        C  0.95648540  0.42976750  0.06451882     0.10100
C204        C  0.96852416  0.39036885  0.06573262    -0.17200
C205        C  0.00093990  0.39042713  0.07727304    -0.27600
C206        C  0.02291311  0.43215484  0.08764599     0.18500
C207        C  0.96319324  0.51118976  0.07499617     0.12400
C208        C  0.91999533  0.42695573  0.05233040    -0.11900
H209        H  0.95125807  0.35838284  0.05785788     0.12700
C210        C  0.05583518  0.43516098  0.10094272    -0.22800
H211        H  0.02750260  0.50340039  0.09426882     0.08400
C212        C  0.92916278  0.51191775  0.08586933     0.04700
C213        C  0.91888588  0.55268169  0.08585157    -0.20000
C214        C  0.94226451  0.59307229  0.07531180    -0.12300
C215        C  0.97474404  0.59106635  0.06401915     0.13400
C216        C  0.98475360  0.55013058  0.06404328    -0.22700
C217        C  0.90378899  0.46974459  0.09751144    -0.05800
H218        H  0.89398250  0.55399166  0.09448242     0.14900
C219        C  0.99832887  0.63126151  0.05173093    -0.16000
H220        H  0.01032362  0.54890141  0.05562935     0.09300
H221        H  0.03733936  0.43719207  0.11158538     0.07100
H222        H  0.09430493  0.47045988  0.09998434     0.08300
H223        H  0.06158464  0.40183123  0.10193689     0.07400
H224        H  0.93974584  0.46103880  0.04479065     0.02200
H225        H  0.88598283  0.42611611  0.05755230     0.02700
H226        H  0.90608831  0.39187069  0.04526088     0.06200
H227        H  0.87745152  0.47565278  0.10495362     0.05200
H228        H  0.93347312  0.46877763  0.10477903    -0.00600
H229        H  0.88091945  0.43199125  0.09175530     0.00900
H230        H  0.01867604  0.62093648  0.04318471     0.04600
H231        H  0.02706709  0.66899064  0.05659550     0.06500
H232        H  0.96768006  0.63490099  0.04578962     0.07400
C233        C  0.97121053  0.93763520  0.10505146    -0.22200
C234        C  0.95074825  0.95723127  0.09446800     0.09700
C235        C  0.91566529  0.92420600  0.08340837     0.10100
C236        C  0.90406519  0.87272447  0.08264720    -0.17200
C237        C  0.92703569  0.85397508  0.09266827    -0.27600
C238        C  0.95962360  0.88627433  0.10433158     0.18500
C239        C  0.96772205  0.01281924  0.09483035     0.12400
C240        C  0.89176821  0.94380250  0.07216147    -0.11900
H241        H  0.87947999  0.84797096  0.07366051     0.12700
C242        C  0.98331016  0.86786294  0.11604959    -0.22800
H243        H  0.99730849  0.96289143  0.11370922     0.08400
C244        C  0.94257367  0.03177867  0.10395337     0.04700
C245        C  0.95663594  0.08379459  0.10279161    -0.20000
C246        C  0.99571008  0.11739544  0.09285440    -0.12300
C247        C  0.02286853  0.09901149  0.08433599     0.13400
C248        C  0.00840444  0.04671272  0.08541072    -0.22700
C249        C  0.89998890  0.99677148  0.11456797    -0.05800
H250        H  0.93588025  0.09803644  0.10932556     0.14900
C251        C  0.06512285  0.13364335  0.07357947    -0.16000
H252        H  0.02780502  0.03175923  0.07854817     0.09300
H253        H  0.97223508  0.87378548  0.12752797     0.07100
H254        H  0.02595029  0.89020074  0.11506288     0.08300
H255        H  0.97034050  0.82634248  0.11493492     0.07400
H256        H  0.92238310  0.97543779  0.06533830     0.02200
H257        H  0.86948779  0.95854011  0.07823408     0.02700
H258        H  0.86517371  0.91297654  0.06429673     0.06200
H259        H  0.88417696  0.01778361  0.12082430     0.05200
H260        H  0.91498845  0.98001248  0.12297010    -0.00600
H261        H  0.86806492  0.96513739  0.10808867     0.00900
H262        H  0.08096886  0.11248207  0.06742097     0.04600
H263        H  0.09711608  0.16549879  0.07997075     0.06500
H264        H  0.05006835  0.15007241  0.06509915     0.07400
C265        C  0.50977907  0.48334567  0.92277825    -0.22200
C266        C  0.47501032  0.49144636  0.93123599     0.09700
C267        C  0.49297335  0.53780356  0.93926191     0.10100
C268        C  0.54502983  0.57602182  0.93816753    -0.17200
C269        C  0.57994284  0.56932902  0.92917496    -0.27600
C270        C  0.56212287  0.52167164  0.92163187     0.18500
C271        C  0.41964074  0.45137433  0.93124623     0.12400
C272        C  0.45691501  0.54731951  0.94872981    -0.11900
H273        H  0.55826306  0.61201714  0.94414811     0.12700
C274        C  0.59714075  0.51150787  0.91189236    -0.22800
H275        H  0.49551331  0.44725444  0.91676114     0.08400
C276        C  0.38572112  0.44982309  0.91990121     0.04700
C277        C  0.33410936  0.40968935  0.91995355    -0.20000
C278        C  0.31574323  0.37104149  0.93108537    -0.12300
C279        C  0.34907057  0.37491990  0.94306635     0.13400
C280        C  0.40078959  0.41459813  0.94283660    -0.22700
C281        C  0.40437483  0.48985970  0.90755936    -0.05800
H282        H  0.30876253  0.40699041  0.91079951     0.14900
C283        C  0.33138342  0.33865197  0.95641107    -0.16000
H284        H  0.42666452  0.41691760  0.95178361     0.09300
H285        H  0.61352647  0.54051480  0.90266725     0.07100
H286        H  0.57625541  0.47273264  0.90659898     0.08300
H287        H  0.62874470  0.51330175  0.91889213     0.07400
H288        H  0.43970804  0.51768404  0.95776197     0.02200
H289        H  0.42564259  0.54533816  0.94152121     0.02700
H290        H  0.47715983  0.58581265  0.95420561     0.06200
H291        H  0.37292690  0.48301269  0.89957544     0.05200
H292        H  0.43548751  0.48903855  0.90103035    -0.00600
H293        H  0.41955429  0.52868768  0.91260045     0.00900
H294        H  0.35117957  0.31583891  0.95634947     0.04600
H295        H  0.28915727  0.31200574  0.95659455     0.06500
H296        H  0.34132989  0.36131364  0.96705230     0.07400
C297        C  0.93578162  0.90953936  0.92220867    -0.22200
C298        C  0.93174170  0.94070973  0.91106474     0.09700
C299        C  0.89067263  0.91870717  0.90061716     0.10100
C300        C  0.85326614  0.86642322  0.90198913    -0.17200
C301        C  0.85575589  0.83575805  0.91361269    -0.27600
C302        C  0.89785037  0.85742684  0.92378480     0.18500
C303        C  0.96961977  0.99671732  0.91105863     0.12400
C304        C  0.88494243  0.95085883  0.88850208    -0.11900
H305        H  0.82043830  0.84989177  0.89438566     0.12700
C306        C  0.90236070  0.82802197  0.93697958    -0.22800
H307        H  0.96759576  0.92664131  0.93017092     0.08400
C308        C  0.96844991  0.02978383  0.92221444     0.04700
C309        C  0.00765982  0.08173652  0.92252574    -0.20000
C310        C  0.04775974  0.10111604  0.91194124    -0.12300
C311        C  0.04701046  0.06879342  0.90021868     0.13400
C312        C  0.00809815  0.01684956  0.89997254    -0.22700
C313        C  0.92633064  0.01010385  0.93391374    -0.05800
H314        H  0.00855242  0.10660552  0.93154000     0.14900
C315        C  0.08701734  0.08781589  0.88793100    -0.16000
H316        H  0.00843474  0.99161166  0.89127221     0.09300
H317        H  0.90274458  0.84740236  0.94770950     0.07100
H318        H  0.93893014  0.82743394  0.93607138     0.08300
H319        H  0.87029029  0.78764298  0.93761977     0.07400
H320        H  0.91870938  0.96698738  0.88082041     0.02200
H321        H  0.88223062  0.98292477  0.89378502     0.02700
H322        H  0.84974741  0.92779765  0.88156686     0.06200
H323        H  0.93064806  0.04135309  0.94155912     0.05200
H324        H  0.92729492  0.97999682  0.94096693    -0.00600
H325        H  0.88828205  0.99349772  0.92821053     0.00900
H326        H  0.10853480  0.06674747  0.88856672     0.04600
H327        H  0.11473669  0.12973652  0.88875389     0.06500
H328        H  0.06783763  0.08058939  0.87671764     0.07400
C329        C  0.77638259  0.66952360  0.98928018    -0.22200
C330        C  0.81165207  0.71812325  0.99515092     0.09700
C331        C  0.82250446  0.76272453  0.98685478     0.10100
C332        C  0.79854931  0.75764205  0.97272194    -0.17200
C333        C  0.76413810  0.70889441  0.96667944    -0.27600
C334        C  0.75221959  0.66429960  0.97523729     0.18500
C335        C  0.83519696  0.72112705  0.01025703     0.12400
C336        C  0.85960067  0.81556160  0.99289877    -0.11900
H337        H  0.80819168  0.79176624  0.96610942     0.12700
C338        C  0.71347234  0.61061533  0.97005406    -0.22800
H339        H  0.76739266  0.63532198  0.99577046     0.08400
C340        C  0.80739136  0.71477559  0.02366900     0.04700
C341        C  0.83011591  0.71616175  0.03768259    -0.20000
C342        C  0.87991977  0.72265481  0.03881284    -0.12300
C343        C  0.90749430  0.72801097  0.02521798     0.13400
C344        C  0.88504439  0.72822870  0.01118729    -0.22700
C345        C  0.75363461  0.70670270  0.02320096    -0.05800
H346        H  0.80845075  0.71202260  0.04789745     0.14900
C347        C  0.95900527  0.73071717  0.02471658    -0.16000
H348        H  0.90595036  0.73221140  0.00081267     0.09300
H349        H  0.68315971  0.59145731  0.97881520     0.07100
H350        H  0.73299210  0.58790881  0.96842073     0.08300
H351        H  0.69380404  0.61003024  0.95936878     0.07400
H352        H  0.89822039  0.81972757  0.99444291     0.02200
H353        H  0.84563623  0.82113671  0.00395982     0.02700
H354        H  0.86363241  0.84636654  0.98507437     0.06200
H355        H  0.73753575  0.70322758  0.03472780     0.05200
H356        H  0.72766391  0.67077737  0.01693958    -0.00600
H357        H  0.75412062  0.73984486  0.01744851     0.00900
H358        H  0.95658095  0.70063869  0.01690808     0.04600
H359        H  0.97178872  0.72360911  0.03571044     0.06500
H360        H  0.98873555  0.76906021  0.02041070     0.07400
C361        C  0.72816383  0.70329687  0.81908104    -0.22200
C362        C  0.68206949  0.68610852  0.82709735     0.09700
C363        C  0.63648443  0.67343348  0.81915073     0.10100
C364        C  0.63845007  0.68034724  0.80341095    -0.17200
C365        C  0.68498163  0.69992900  0.79537519    -0.27600
C366        C  0.73044605  0.71073111  0.80331593     0.18500
C367        C  0.68349574  0.68650707  0.84388839     0.12400
C368        C  0.58610922  0.65412960  0.82734540    -0.11900
H369        H  0.60361082  0.67197754  0.79736648     0.12700
C370        C  0.78255541  0.73309473  0.79590992    -0.22800
H371        H  0.76314951  0.71314993  0.82527850     0.08400
C372        C  0.67651968  0.64366419  0.85233526     0.04700
C373        C  0.68011667  0.64712134  0.86819378    -0.20000
C374        C  0.69156509  0.69281221  0.87585681    -0.12300
C375        C  0.69917762  0.73606317  0.86724032     0.13400
C376        C  0.69389590  0.73176309  0.85142200    -0.22700
C377        C  0.66627730  0.59475703  0.84459157    -0.05800
H378        H  0.67491012  0.61411600  0.87465966     0.14900
C379        C  0.71621612  0.78841330  0.87393502    -0.16000
H380        H  0.69989603  0.76480670  0.84481218     0.09300
H381        H  0.79767995  0.70644832  0.79755466     0.07100
H382        H  0.80966120  0.77066255  0.80124443     0.08300
H383        H  0.78205675  0.73994675  0.78364805     0.07400
H384        H  0.58952393  0.68344986  0.83562039     0.02200
H385        H  0.57588141  0.61788595  0.83344193     0.02700
H386        H  0.55415819  0.64614495  0.81942552     0.06200
H387        H  0.66201571  0.56495955  0.85286102     0.05200
H388        H  0.69881190  0.60296202  0.83693858    -0.00600
H389        H  0.63023458  0.57879496  0.83785877     0.00900
H390        H  0.75226296  0.81762011  0.86829793     0.04600
H391        H  0.72467476  0.79124635  0.88616280     0.06500
H392        H  0.68595528  0.79869190  0.87196711     0.07400
C393        C  0.64139453  0.81180923  0.65183431    -0.22200
C394        C  0.66590234  0.84770787  0.66340390     0.09700
C395        C  0.68754023  0.90064382  0.66023367     0.10100
C396        C  0.68427199  0.91653053  0.64547108    -0.17200
C397        C  0.66008525  0.88074910  0.63364884    -0.27600
C398        C  0.63821640  0.82725197  0.63703046     0.18500
C399        C  0.66864155  0.82854947  0.67871713     0.12400
C400        C  0.71437405  0.94032392  0.67243787    -0.11900
H401        H  0.70125953  0.95733587  0.64316818     0.12700
C402        C  0.61215570  0.78557141  0.62525873    -0.22800
H403        H  0.62496675  0.77122551  0.65443528     0.08400
C404        C  0.62853402  0.81371559  0.68929518     0.04700
C405        C  0.63220241  0.79464325  0.70349718    -0.20000
C406        C  0.67474577  0.78918166  0.70738089    -0.12300
C407        C  0.71484038  0.80385070  0.69665025     0.13400
C408        C  0.71119185  0.82334310  0.68247460    -0.22700
C409        C  0.58181067  0.81793187  0.68555534    -0.05800
H410        H  0.60133565  0.78358663  0.71160167     0.14900
C411        C  0.76231706  0.80072763  0.70015909    -0.16000
H412        H  0.74172193  0.83464195  0.67423392     0.09300
H413        H  0.57809882  0.78607669  0.62055971     0.07100
H414        H  0.59819215  0.74653103  0.63005780     0.08300
H415        H  0.63977689  0.79122775  0.61610058     0.07400
H416        H  0.74744291  0.93752567  0.67693006     0.02200
H417        H  0.68708718  0.93361277  0.68179348     0.02700
H418        H  0.72926264  0.98009317  0.66811624     0.06200
H419        H  0.55402002  0.80486135  0.69509541     0.05200
H420        H  0.56177232  0.79369299  0.67555369    -0.00600
H421        H  0.59369069  0.85861397  0.68298566     0.00900
H422        H  0.75167475  0.75996500  0.70194298     0.04600
H423        H  0.78146031  0.82360451  0.71045912     0.06500
H424        H  0.79063619  0.81617290  0.69075492     0.07400
C425        C  0.19694787  0.24457878  0.82140763    -0.22200
C426        C  0.23961265  0.24763784  0.82891986     0.09700
C427        C  0.27792435  0.24523932  0.82040409     0.10100
C428        C  0.27182099  0.23820555  0.80467153    -0.17200
C429        C  0.22810966  0.23306119  0.79704569    -0.27600
C430        C  0.19036178  0.23726415  0.80565042     0.18500
C431        C  0.24111263  0.24968867  0.84577393     0.12400
C432        C  0.32546540  0.25040014  0.82787768    -0.11900
H433        H  0.30144695  0.23606155  0.79827848     0.12700
C434        C  0.14141291  0.23209171  0.79920271    -0.22800
H435        H  0.16738768  0.24613974  0.82802566     0.08400
C436        C  0.24737928  0.29300759  0.85378487     0.04700
C437        C  0.24065994  0.28988635  0.86956044    -0.20000
C438        C  0.22834772  0.24466848  0.87768014    -0.12300
C439        C  0.22631479  0.20261723  0.86968710     0.13400
C440        C  0.23230082  0.20578365  0.85386666    -0.22700
C441        C  0.26108264  0.34249445  0.84569846    -0.05800
H442        H  0.24369623  0.32273395  0.87557681     0.14900
C443        C  0.21569641  0.15271581  0.87692283    -0.16000
H444        H  0.22793506  0.17265763  0.84768051     0.09300
H445        H  0.14100394  0.26838548  0.80119005     0.07100
H446        H  0.10773121  0.20014269  0.80504583     0.08300
H447        H  0.13577782  0.22367883  0.78702450     0.07400
H448        H  0.31473880  0.21833462  0.83598093     0.02200
H449        H  0.34607889  0.28764555  0.83401791     0.02700
H450        H  0.35242207  0.24938381  0.81948872     0.06200
H451        H  0.26625314  0.37316483  0.85372250     0.05200
H452        H  0.23011789  0.33620388  0.83762454    -0.00600
H453        H  0.29773953  0.35639702  0.83941887     0.00900
H454        H  0.18185895  0.12013120  0.87134193     0.04600
H455        H  0.20753281  0.14995572  0.88913710     0.06500
H456        H  0.24949699  0.14762032  0.87524003     0.07400
C457        C  0.89457807  0.95169399  0.74956695    -0.22200
C458        C  0.92659660  0.94419733  0.75957538     0.09700
C459        C  0.90533909  0.90098228  0.76922003     0.10100
C460        C  0.85258641  0.86519275  0.76827483    -0.17200
C461        C  0.82080791  0.87141098  0.75784420    -0.27600
C462        C  0.84184710  0.91539272  0.74842419     0.18500
C463        C  0.98236327  0.98200150  0.75964564     0.12400
C464        C  0.93859476  0.89150183  0.78002455    -0.11900
H465        H  0.83636576  0.83087552  0.77525901     0.12700
C466        C  0.81075247  0.92384820  0.73654127    -0.22800
H467        H  0.91123298  0.98526680  0.74224914     0.08400
C468        C  0.01499536  0.98383908  0.74787008     0.04700
C469        C  0.06665509  0.02365833  0.74771923    -0.20000
C470        C  0.08570115  0.06153427  0.75899111    -0.12300
C471        C  0.05374164  0.05804425  0.77116830     0.13400
C472        C  0.00236774  0.01801565  0.77140099    -0.22700
C473        C  0.99504943  0.94447543  0.73535571    -0.05800
H474        H  0.09135648  0.02699653  0.73833422     0.14900
C475        C  0.07350643  0.09737293  0.78369441    -0.16000
H476        H  0.97710463  0.01591589  0.78046344     0.09300
H477        H  0.82745123  0.92566357  0.72520165     0.07100
H478        H  0.81207232  0.96088123  0.73873884     0.08300
H479        H  0.76978403  0.89289761  0.73628086     0.07400
H480        H  0.95696251  0.92351510  0.78830294     0.02200
H481        H  0.96900681  0.88890970  0.77363574     0.02700
H482        H  0.91581521  0.85503845  0.78644530     0.06200
H483        H  0.02592974  0.95116460  0.72720665     0.05200
H484        H  0.96408021  0.94631744  0.72901233    -0.00600
H485        H  0.97942738  0.90531053  0.74023409     0.00900
H486        H  0.04393937  0.08792730  0.79257634     0.04600
H487        H  0.08437508  0.13580176  0.77903506     0.06500
H488        H  0.10773516  0.09898182  0.78908127     0.07400
C489        C  0.42907161  0.41081540  0.75598912    -0.22200
C490        C  0.42440277  0.44546636  0.74637866     0.09700
C491        C  0.38217439  0.42732568  0.73641003     0.10100
C492        C  0.34505078  0.37485635  0.73639687    -0.17200
C493        C  0.34867536  0.33990781  0.74622462    -0.27600
C494        C  0.39148744  0.35817526  0.75614480     0.18500
C495        C  0.46532130  0.50031483  0.74639839     0.12400
C496        C  0.37550790  0.46357480  0.72608056    -0.11900
H497        H  0.31219951  0.36120436  0.72886328     0.12700
C498        C  0.39678501  0.32323082  0.76735762    -0.22800
H499        H  0.46202656  0.42524948  0.76351208     0.08400
C500        C  0.46960144  0.53457387  0.75797657     0.04700
C501        C  0.51027425  0.58592601  0.75751090    -0.20000
C502        C  0.54672642  0.60330551  0.74578460    -0.12300
C503        C  0.54076146  0.56926738  0.73384320     0.13400
C504        C  0.50023600  0.51819608  0.73437442    -0.22700
C505        C  0.43147378  0.51685134  0.77079490    -0.05800
H506        H  0.51489669  0.61192222  0.76665927     0.14900
C507        C  0.57638922  0.58646236  0.72036102    -0.16000
H508        H  0.49602673  0.49166015  0.72543314     0.09300
H509        H  0.43168068  0.34459123  0.77453717     0.07100
H510        H  0.40011412  0.29275534  0.76127068     0.08300
H511        H  0.36272076  0.30529841  0.77494922     0.07400
H512        H  0.40818675  0.48204576  0.71802942     0.02200
H513        H  0.37402194  0.49382114  0.73289529     0.02700
H514        H  0.33937596  0.44318696  0.71936933     0.06200
H515        H  0.43998949  0.54873236  0.77876572     0.05200
H516        H  0.43273045  0.48574532  0.77723952    -0.00600
H517        H  0.39202035  0.50202270  0.76621618     0.00900
H518        H  0.56266036  0.55613612  0.71151601     0.04600
H519        H  0.61547434  0.59503447  0.72376919     0.06500
H520        H  0.57847344  0.62122699  0.71521439     0.07400
C521        C  0.86685396  0.93698098  0.56668759    -0.22200
C522        C  0.89734984  0.94307615  0.57943691     0.09700
C523        C  0.87559025  0.93513631  0.59404736     0.10100
C524        C  0.82487431  0.92480466  0.59563096    -0.17200
C525        C  0.79527668  0.92138262  0.58295956    -0.27600
C526        C  0.81576843  0.92608240  0.56830040     0.18500
C527        C  0.95263305  0.96005224  0.57750575     0.12400
C528        C  0.90605448  0.93825096  0.60799331    -0.11900
H529        H  0.80886657  0.92145885  0.60684137     0.12700
C530        C  0.78462794  0.92213906  0.55445596    -0.22800
H531        H  0.88367599  0.94267704  0.55551369     0.08400
C532        C  0.96884841  0.92568350  0.57289328     0.04700
C533        C  0.02136849  0.94143594  0.57362747    -0.20000
C534        C  0.05813135  0.99033905  0.57923138    -0.12300
C535        C  0.04184516  0.02572743  0.58316608     0.13400
C536        C  0.98939306  0.01025562  0.58188219    -0.22700
C537        C  0.93059246  0.87170595  0.56786807    -0.05800
H538        H  0.03355346  0.91440415  0.57037867     0.14900
C539        C  0.07669331  0.07842596  0.58979003    -0.16000
H540        H  0.97646467  0.03655516  0.58531391     0.09300
H541        H  0.74917718  0.88362766  0.55410725     0.07100
H542        H  0.80662040  0.92727392  0.54387853     0.08300
H543        H  0.77358684  0.95224718  0.55477864     0.07400
H544        H  0.93982245  0.97760278  0.60921596     0.02200
H545        H  0.91954109  0.91005273  0.60711048     0.02700
H546        H  0.88250858  0.92938342  0.61842765     0.06200
H547        H  0.94976923  0.84944343  0.56495733     0.05200
H548        H  0.90960222  0.87305512  0.55768655    -0.00600
H549        H  0.90254953  0.85097745  0.57708095     0.00900
H550        H  0.07784926  0.10822754  0.58207799     0.04600
H551        H  0.11656515  0.08744020  0.59188248     0.06500
H552        H  0.06106731  0.08142117  0.60087860     0.07400
C553        C  0.42532374  0.03363715  0.58538655    -0.22200
C554        C  0.42424318  0.99636522  0.59522973     0.09700
C555        C  0.38221555  0.96973670  0.60515012     0.10100
C556        C  0.34121002  0.97940662  0.60457091    -0.17200
C557        C  0.34072665  0.01484666  0.59423855    -0.27600
C558        C  0.38395885  0.04314359  0.58470488     0.18500
C559        C  0.46604444  0.98368742  0.59456489     0.12400
C560        C  0.37956662  0.92951481  0.61593750    -0.11900
H561        H  0.30834966  0.95775795  0.61193618     0.12700
C562        C  0.38566758  0.08121210  0.57325798    -0.22800
H563        H  0.45798527  0.05415555  0.57787636     0.08400
C564        C  0.46807543  0.95272815  0.58288346     0.04700
C565        C  0.50660459  0.93922537  0.58319763    -0.20000
C566        C  0.54300498  0.95575240  0.59496165    -0.12300
C567        C  0.53964831  0.98526126  0.60694724     0.13400
C568        C  0.50191170  0.99969515  0.60640116    -0.22700
C569        C  0.42939631  0.93367852  0.57015221    -0.05800
H570        H  0.50915946  0.91679799  0.57399655     0.14900
C571        C  0.57356356  0.00044487  0.62081148    -0.16000
H572        H  0.49951354  0.02249788  0.61552297     0.09300
H573        H  0.35257265  0.06163461  0.56534128     0.07100
H574        H  0.42163024  0.09847472  0.56646257     0.08300
H575        H  0.38413068  0.11304615  0.57912591     0.07400
H576        H  0.41211208  0.94743116  0.62407662     0.02200
H577        H  0.38161057  0.89884358  0.60952227     0.02700
H578        H  0.34319058  0.91117717  0.62254508     0.06200
H579        H  0.43591273  0.90914445  0.56211566     0.05200
H580        H  0.43235514  0.96687815  0.56374269    -0.00600
H581        H  0.38985097  0.91045096  0.57480392     0.00900
H582        H  0.59828651  0.04302879  0.62125627     0.04600
H583        H  0.59834140  0.98293163  0.62127203     0.06500
H584        H  0.54901462  0.98717655  0.63109267     0.07400
C585        C  0.18185815  0.03801680  0.65948651    -0.22200
C586        C  0.19631030  0.08993741  0.66149752     0.09700
C587        C  0.20895096  0.12217564  0.64873413     0.10100
C588        C  0.20762318  0.10214915  0.63429290    -0.17200
C589        C  0.19427086  0.05031528  0.63207197    -0.27600
C590        C  0.18053001  0.01765620  0.64497774     0.18500
C591        C  0.20046877  0.11077384  0.67707143     0.12400
C592        C  0.22424911  0.17804429  0.65037477    -0.11900
H593        H  0.21762296  0.12775675  0.62465525     0.12700
C594        C  0.16527909  0.96173665  0.64373809    -0.22800
H595        H  0.17221395  0.01348403  0.66937776     0.08400
C596        C  0.15794124  0.10872157  0.68453295     0.04700
C597        C  0.16452004  0.13040158  0.69908033    -0.20000
C598        C  0.21259732  0.15357277  0.70645873    -0.12300
C599        C  0.25539328  0.15631172  0.69878536     0.13400
C600        C  0.24870616  0.13500107  0.68421897    -0.22700
C601        C  0.10565495  0.08345742  0.67713681    -0.05800
H602        H  0.13161137  0.12795845  0.70489135     0.14900
C603        C  0.30863567  0.18292649  0.70565318    -0.16000
H604        H  0.28138592  0.13723689  0.67831541     0.09300
H605        H  0.13004854  0.94087026  0.63667886     0.07100
H606        H  0.15664104  0.94257583  0.65497867     0.08300
H607        H  0.19722917  0.95836401  0.63865479     0.07400
H608        H  0.25940009  0.19834265  0.65749339     0.02200
H609        H  0.19250789  0.18099673  0.65578314     0.02700
H610        H  0.23262427  0.19796290  0.63925872     0.06200
H611        H  0.07649345  0.08507802  0.68445823     0.05200
H612        H  0.09256522  0.04236063  0.67480447    -0.00600
H613        H  0.10774227  0.10327975  0.66632152     0.00900
H614        H  0.30964487  0.16157385  0.71577625     0.04600
H615        H  0.31981860  0.22296581  0.70885630     0.06500
H616        H  0.33793671  0.18491249  0.69760221     0.07400
C617        C  0.73416987  0.02481976  0.52286361    -0.22200
C618        C  0.69632347  0.98922660  0.51301773     0.09700
C619        C  0.65001456  0.94898639  0.51898208     0.10100
C620        C  0.64350720  0.94366470  0.53470020    -0.17200
C621        C  0.68215268  0.97769326  0.54474256    -0.27600
C622        C  0.72766242  0.01982979  0.53867833     0.18500
C623        C  0.70554485  0.99438243  0.49645450     0.12400
C624        C  0.60746333  0.91149975  0.50872816    -0.11900
H625        H  0.60818037  0.91183698  0.53917145     0.12700
C626        C  0.77019048  0.05875379  0.54865485    -0.22800
H627        H  0.76931668  0.05613927  0.51812230     0.08400
C628        C  0.69809902  0.02959471  0.48783400     0.04700
C629        C  0.70511153  0.03160271  0.47211774    -0.20000
C630        C  0.71896230  0.99888797  0.46471320    -0.12300
C631        C  0.72604441  0.96324966  0.47338728     0.13400
C632        C  0.71948647  0.96167824  0.48918139    -0.22700
C633        C  0.68216762  0.06460288  0.49520967    -0.05800
H634        H  0.69957865  0.05896187  0.46553457     0.14900
C635        C  0.74175556  0.92785587  0.46618107    -0.16000
H636        H  0.72488639  0.93454559  0.49592444     0.09300
H637        H  0.80300713  0.08835007  0.54192370     0.07100
H638        H  0.78517880  0.03932893  0.55604945     0.08300
H639        H  0.75537542  0.07901491  0.55570736     0.07400
H640        H  0.62135992  0.89025217  0.50176000     0.02200
H641        H  0.59493459  0.93271381  0.50116008     0.02700
H642        H  0.57338882  0.88279368  0.51523364     0.06200
H643        H  0.67726092  0.08932160  0.48678940     0.05200
H644        H  0.71199081  0.09014458  0.50347647    -0.00600
H645        H  0.64492488  0.04119889  0.50117789     0.00900
H646        H  0.74805073  0.90445353  0.47474956     0.04600
H647        H  0.77816008  0.95073305  0.45980988     0.06500
H648        H  0.71106216  0.90091715  0.45835543     0.07400
C649        C  0.81941526  0.11910666  0.31879058    -0.22200
C650        C  0.85510956  0.12408327  0.32978296     0.09700
C651        C  0.90795558  0.14959217  0.32605383     0.10100
C652        C  0.92383798  0.16969740  0.31133353    -0.17200
C653        C  0.88806910  0.16497799  0.30015326    -0.27600
C654        C  0.83473828  0.13908544  0.30412848     0.18500
C655        C  0.83562852  0.10475080  0.34531630     0.12400
C656        C  0.94749137  0.15601620  0.33767453    -0.11900
H657        H  0.96446979  0.18897665  0.30856320     0.12700
C658        C  0.79292809  0.13235542  0.29326390    -0.22800
H659        H  0.77895994  0.09975480  0.32183383     0.08400
C660        C  0.82194413  0.13287486  0.35511065     0.04700
C661        C  0.80003739  0.11206057  0.36922906    -0.20000
C662        C  0.79148754  0.06361990  0.37405850    -0.12300
C663        C  0.80557380  0.03545077  0.36420264     0.13400
C664        C  0.82719374  0.05633596  0.34993174    -0.22700
C665        C  0.83106648  0.18536183  0.35073021    -0.05800
H666        H  0.78984209  0.13428513  0.37661775     0.14900
C667        C  0.79940004  0.98424103  0.36870628    -0.16000
H668        H  0.83749395  0.03478352  0.34229412     0.09300
H669        H  0.80070118  0.17054874  0.28912909     0.07100
H670        H  0.75432270  0.11329734  0.29868131     0.08300
H671        H  0.79065381  0.10760869  0.28364050     0.07400
H672        H  0.93974514  0.11759689  0.34157202     0.02200
H673        H  0.94562362  0.17796684  0.34750785     0.02700
H674        H  0.98719801  0.17716168  0.33301355     0.06200
H675        H  0.81930589  0.20273283  0.35983914     0.05200
H676        H  0.80850947  0.18239261  0.34043525    -0.00600
H677        H  0.87268182  0.21161266  0.34843538     0.00900
H678        H  0.75802829  0.95576477  0.37053559     0.04600
H679        H  0.82152080  0.98860637  0.37922892     0.06500
H680        H  0.81387648  0.96865350  0.35981380     0.07400
C681        C  0.96863721  0.29479569  0.18809225    -0.22200
C682        C  0.97914490  0.26226299  0.17936348     0.09700
C683        C  0.99016718  0.22700142  0.18668236     0.10100
C684        C  0.98799129  0.22337107  0.20256870    -0.17200
C685        C  0.97586120  0.25478470  0.21129153    -0.27600
C686        C  0.96699483  0.29158017  0.20396700     0.18500
C687        C  0.98003970  0.26662658  0.16258745     0.12400
C688        C  0.00389956  0.19302821  0.17770074    -0.11900
H689        H  0.99410136  0.19473549  0.20818269     0.12700
C690        C  0.95554916  0.32781935  0.21260186    -0.22800
H691        H  0.96126764  0.32259521  0.18247738     0.08400
C692        C  0.93698441  0.23390577  0.15357350     0.04700
C693        C  0.94174385  0.23609739  0.13769748    -0.20000
C694        C  0.98859561  0.27057231  0.13055621    -0.12300
C695        C  0.03066548  0.30594460  0.13976775     0.13400
C696        C  0.02566652  0.30317089  0.15559986    -0.22700
C697        C  0.88614747  0.19654808  0.16074363    -0.05800
H698        H  0.90903565  0.20957341  0.13087841     0.14900
C699        C  0.08109786  0.34725400  0.13324111    -0.16000
H700        H  0.05809123  0.32893890  0.16265105     0.09300
H701        H  0.91643235  0.32034874  0.20962397     0.07100
H702        H  0.98425046  0.36823248  0.20959828     0.08300
H703        H  0.95758713  0.32381963  0.22500152     0.07400
H704        H  0.03914353  0.21728592  0.17094118     0.02200
H705        H  0.97184443  0.16808083  0.16994398     0.02700
H706        H  0.01148955  0.16775607  0.18515855     0.06200
H707        H  0.85624395  0.17398254  0.15211398     0.05200
H708        H  0.87240057  0.21802246  0.16767903    -0.00600
H709        H  0.89060507  0.16909686  0.16811762     0.00900
H710        H  0.10738541  0.37347692  0.14212918     0.04600
H711        H  0.07390654  0.37110812  0.12512556     0.06500
H712        H  0.10152580  0.32974502  0.12758909     0.07400
C713        C  0.21603573  0.00847557  0.48535090    -0.22200
C714        C  0.22745475  0.97625028  0.49402148     0.09700
C715        C  0.24312890  0.94473172  0.48672231     0.10100
C716        C  0.24544090  0.94485313  0.47085940    -0.17200
C717        C  0.23285278  0.97609775  0.46209844    -0.27600
C718        C  0.21839420  0.00869127  0.46944427     0.18500
C719        C  0.22355343  0.97674075  0.51075986     0.12400
C720        C  0.25684606  0.91059822  0.49568823    -0.11900
H721        H  0.25592837  0.91942231  0.46521632     0.12700
C722        C  0.20274037  0.04150535  0.46056077    -0.22800
H723        H  0.20432603  0.03282189  0.49107012     0.08400
C724        C  0.26451775  0.01422350  0.51949895     0.04700
C725        C  0.25879337  0.01483795  0.53521504    -0.20000
C726        C  0.21294512  0.97896861  0.54250282    -0.12300
C727        C  0.17222780  0.94048175  0.53377115     0.13400
C728        C  0.17813784  0.93978740  0.51796528    -0.22700
C729        C  0.31406791  0.05402097  0.51219364    -0.05800
H730        H  0.29009608  0.04439030  0.54185780     0.14900
C731        C  0.12182445  0.90187053  0.54091150    -0.16000
H732        H  0.14686757  0.91100401  0.51113965     0.09300
H733        H  0.19113255  0.06346483  0.46809121     0.07100
H734        H  0.16950988  0.01669826  0.45312605     0.08300
H735        H  0.23551886  0.06961881  0.45353262     0.07400
H736        H  0.22310081  0.88264432  0.50244226     0.02200
H737        H  0.28942217  0.93443118  0.50343910     0.02700
H738        H  0.26853722  0.88854070  0.48822987     0.06200
H739        H  0.34235048  0.08040798  0.52067973     0.05200
H740        H  0.30619710  0.07757308  0.50410690    -0.00600
H741        H  0.33177940  0.03466016  0.50602477     0.00900
H742        H  0.10461562  0.92223672  0.54680960     0.04600
H743        H  0.12828994  0.87774431  0.54914988     0.06500
H744        H  0.09367487  0.87580163  0.53234482     0.07400
C745        C  0.53007258  0.01203470  0.42210778    -0.22200
C746        C  0.49520576  0.96886885  0.41366645     0.09700
C747        C  0.51335463  0.94123576  0.40536708     0.10100
C748        C  0.56604507  0.95736593  0.40571480    -0.17200
C749        C  0.60135532  0.00035991  0.41427238    -0.27600
C750        C  0.58285154  0.02794746  0.42265361     0.18500
C751        C  0.44015758  0.95452697  0.41325184     0.12400
C752        C  0.47693473  0.89397229  0.39643825    -0.11900
H753        H  0.57962463  0.93568959  0.39936664     0.12700
C754        C  0.61770730  0.07277396  0.43265447    -0.22800
H755        H  0.51569469  0.03313705  0.42840050     0.08400
C756        C  0.40696598  0.93111579  0.42571291     0.04700
C757        C  0.35631649  0.92226363  0.42510766    -0.20000
C758        C  0.33862837  0.93692096  0.41239381    -0.12300
C759        C  0.37109254  0.95784900  0.39963806     0.13400
C760        C  0.42145362  0.96635468  0.40023507    -0.22700
C761        C  0.42520955  0.91612463  0.43967394    -0.05800
H762        H  0.33140540  0.90642596  0.43488392     0.14900
C763        C  0.35271949  0.97116692  0.38535158    -0.16000
H764        H  0.44696343  0.98370964  0.39064870     0.09300
H765        H  0.59609478  0.08809927  0.43882531     0.07100
H766        H  0.64749184  0.10462235  0.42570227     0.08300
H767        H  0.63645316  0.06037991  0.44120222     0.07400
H768        H  0.45799408  0.90432614  0.38741605     0.02200
H769        H  0.44705030  0.86499046  0.40408046     0.02700
H770        H  0.49728595  0.87599946  0.39096203     0.06200
H771        H  0.39413108  0.89745874  0.44824432     0.05200
H772        H  0.45780600  0.95081049  0.44491606    -0.00600
H773        H  0.43809355  0.88856270  0.43659231     0.00900
H774        H  0.38202897  0.98411850  0.37622545     0.04600
H775        H  0.34470412  0.00283426  0.38748373     0.06500
H776        H  0.31710129  0.93671475  0.38122012     0.07400
C777        C  0.99458499  0.94773838  0.42001351    -0.22200
C778        C  0.00889762  0.99842816  0.42403435     0.09700
C779        C  0.06058295  0.03403091  0.42751504     0.10100
C780        C  0.09722135  0.01848603  0.42658593    -0.17200
C781        C  0.08369058  0.96828297  0.42204790    -0.27600
C782        C  0.03146797  0.93216319  0.41889161     0.18500
C783        C  0.96962118  0.01423424  0.42379635     0.12400
C784        C  0.07736044  0.08889666  0.43171088    -0.11900
H785        H  0.13710514  0.04628922  0.42913445     0.12700
C786        C  0.01469747  0.87824636  0.41368801    -0.22800
H787        H  0.95457259  0.92074888  0.41735230     0.08400
C788        C  0.95253508  0.02429121  0.41001670     0.04700
C789        C  0.91296146  0.03604121  0.41022165    -0.20000
C790        C  0.89053437  0.03827845  0.42387354    -0.12300
C791        C  0.90959585  0.03106094  0.43772614     0.13400
C792        C  0.94912627  0.01912549  0.43751399    -0.22700
C793        C  0.97545883  0.02181689  0.39511154    -0.05800
H794        H  0.89760794  0.04095614  0.39962801     0.14900
C795        C  0.88793308  0.03387076  0.45281335    -0.16000
H796        H  0.96307621  0.01218949  0.44807905     0.09300
H797        H  0.97278478  0.85610976  0.41113384     0.07100
H798        H  0.02251240  0.85723568  0.42268426     0.08300
H799        H  0.03581861  0.87964890  0.40323381     0.07400
H800        H  0.05744248  0.08956137  0.44219449     0.02200
H801        H  0.06768484  0.10746374  0.42239498     0.02700
H802        H  0.11954493  0.11201339  0.43376815     0.06200
H803        H  0.95808368  0.03154369  0.38546832     0.05200
H804        H  0.96874431  0.98237370  0.39324454    -0.00600
H805        H  0.01755845  0.04963938  0.39515309     0.00900
H806        H  0.87250808  0.99639951  0.45877120     0.04600
H807        H  0.85662882  0.04308197  0.45178114     0.06500
H808        H  0.91907755  0.06434609  0.45981220     0.07400
C809        C  0.02346918  0.54863235  0.25325371    -0.22200
C810        C  0.97638300  0.51202589  0.25971067     0.09700
C811        C  0.94423795  0.52839349  0.26614871     0.10100
C812        C  0.95935043  0.58083056  0.26576619    -0.17200
C813        C  0.00600299  0.61805353  0.25900439    -0.27600
C814        C  0.03882265  0.60143874  0.25280292     0.18500
C815        C  0.96179230  0.45678165  0.25999431     0.12400
C816        C  0.89349260  0.49027644  0.27325029    -0.11900
H817        H  0.93380838  0.59257005  0.27065511     0.12700
C818        C  0.08946289  0.63842648  0.24546222    -0.22800
H819        H  0.04815565  0.53564293  0.24845428     0.08400
C820        C  0.93636810  0.42347147  0.24770519     0.04700
C821        C  0.92363455  0.37155323  0.24857069    -0.20000
C822        C  0.93764526  0.35278218  0.26119399    -0.12300
C823        C  0.96128057  0.38580305  0.27373357     0.13400
C824        C  0.97268892  0.43724276  0.27300226    -0.22700
C825        C  0.92367548  0.44303638  0.23358886    -0.05800
H826        H  0.90488453  0.34623029  0.23905606     0.14900
C827        C  0.97379493  0.36678437  0.28802644    -0.16000
H828        H  0.99108095  0.46273280  0.28253135     0.09300
H829        H  0.08300581  0.65801245  0.23577266     0.07100
H830        H  0.10943829  0.61844060  0.24109075     0.08300
H831        H  0.11534123  0.66745907  0.25385271     0.07400
H832        H  0.90017777  0.47045228  0.28285133     0.02200
H833        H  0.86853647  0.46121068  0.26472599     0.02700
H834        H  0.87260934  0.50932230  0.27763121     0.06200
H835        H  0.90402346  0.41209751  0.22501928     0.05200
H836        H  0.95966274  0.47430991  0.22847720    -0.00600
H837        H  0.89785702  0.45828032  0.23642363     0.00900
H838        H  0.98865465  0.39662967  0.29702619     0.04600
H839        H  0.00385125  0.35650666  0.28583420     0.06500
H840        H  0.93848164  0.33249291  0.29236965     0.07400
C841        C  0.98179872  0.94003684  0.23383450    -0.22200
C842        C  0.00202677  0.97823296  0.24499478     0.09700
C843        C  0.03779781  0.97919749  0.25559930     0.10100
C844        C  0.05024000  0.93989708  0.25535198    -0.17200
C845        C  0.02716290  0.89965335  0.24483165    -0.27600
C846        C  0.99376682  0.90052452  0.23366409     0.18500
C847        C  0.98379964  0.01576173  0.24568407     0.12400
C848        C  0.06154259  0.02082357  0.26742037    -0.11900
H849        H  0.07531511  0.93872237  0.26399336     0.12700
C850        C  0.96995329  0.85916499  0.22172960    -0.22800
H851        H  0.95511921  0.94016666  0.22557288     0.08400
C852        C  0.00628154  0.06055376  0.23668407     0.04700
C853        C  0.98958999  0.09627255  0.23829725    -0.20000
C854        C  0.95088369  0.08824300  0.24868476    -0.12300
C855        C  0.92730159  0.04259266  0.25743554     0.13400
C856        C  0.94387390  0.00665990  0.25571636    -0.22700
C857        C  0.04886179  0.07129910  0.22571305    -0.05800
H858        H  0.00805395  0.13164094  0.23175304     0.14900
C859        C  0.88675882  0.03174016  0.26918407    -0.16000
H860        H  0.92661910  0.97199687  0.26257635     0.09300
H861        H  0.00081472  0.85748485  0.21530874     0.07100
H862        H  0.94636370  0.86677609  0.21356996     0.08300
H863        H  0.94444100  0.82114474  0.22704467     0.07400
H864        H  0.03091377  0.01974117  0.27468835     0.02200
H865        H  0.08300921  0.05908361  0.26183973     0.02700
H866        H  0.08883252  0.01600370  0.27479595     0.06200
H867        H  0.06260001  0.10842446  0.21967236     0.05200
H868        H  0.03476023  0.04010718  0.21714686    -0.00600
H869        H  0.08204557  0.07322549  0.23187909     0.00900
H870        H  0.85100140  0.99520642  0.26636239     0.04600
H871        H  0.87691850  0.06257794  0.27002271     0.06500
H872        H  0.90073045  0.02762509  0.28045579     0.07400
C873        C  0.05327890  0.83241074  0.32340843    -0.22200
C874        C  0.10630889  0.85595679  0.32638036     0.09700
C875        C  0.13966831  0.85839063  0.31484662     0.10100
C876        C  0.11934727  0.83661649  0.30068298    -0.17200
C877        C  0.06603509  0.81219853  0.29750561    -0.27600
C878        C  0.03261779  0.81071370  0.30912271     0.18500
C879        C  0.12608595  0.87410389  0.34194318     0.12400
C880        C  0.19698372  0.88410818  0.31749707    -0.11900
H881        H  0.14586505  0.83885192  0.29202582     0.12700
C882        C  0.97541956  0.78671269  0.30669961    -0.22800
H883        H  0.02789273  0.83052763  0.33239795     0.08400
C884        C  0.13865674  0.92339996  0.34723914     0.04700
C885        C  0.15874621  0.93864751  0.36197052    -0.20000
C886        C  0.16633171  0.90554513  0.37156334    -0.12300
C887        C  0.15488161  0.85654237  0.36595383     0.13400
C888        C  0.13484168  0.84164413  0.35128899    -0.22700
C889        C  0.13094685  0.95977280  0.33731806    -0.05800
H890        H  0.16739503  0.97609552  0.36612680     0.14900
C891        C  0.16484444  0.81991720  0.37509067    -0.16000
H892        H  0.12603076  0.80427245  0.34699691     0.11700
H893        H  0.95568275  0.78938502  0.31697953     0.07100
H894        H  0.95833723  0.74525814  0.30389948     0.08300
H895        H  0.96787228  0.80696605  0.29739944     0.07400
H896        H  0.20516667  0.86395078  0.32667616     0.02200
H897        H  0.21228260  0.92494388  0.32077638     0.02700
H898        H  0.21782805  0.88349761  0.30720763     0.06200
H899        H  0.14287047  0.99689496  0.34311966     0.05200
H900        H  0.08962287  0.94204419  0.33421258    -0.00600
H901        H  0.15422222  0.96806452  0.32685407     0.00900
H902        H  0.13834757  0.80496776  0.38490987     0.04600
H903        H  0.20550099  0.83990783  0.37903707     0.06500
H904        H  0.15828963  0.78600110  0.36832397     0.07400
C905        C  0.94578178  0.67693555  0.15228741    -0.22200
C906        C  0.98343223  0.72265151  0.15900245     0.09700
C907        C  0.01601658  0.76524397  0.14981844     0.10100
C908        C  0.00791592  0.76217463  0.13408097    -0.17200
C909        C  0.96773759  0.71750352  0.12739809    -0.27600
C910        C  0.93748218  0.67363350  0.13660569     0.18500
C911        C  0.98678778  0.72524453  0.17573236     0.12400
C912        C  0.05855758  0.81410629  0.15669015    -0.11900
H913        H  0.03159563  0.79552276  0.12707324     0.12700
C914        C  0.89682987  0.62287075  0.13004263    -0.22800
H915        H  0.92186746  0.64405872  0.15943947     0.08400
C916        C  0.95687605  0.74008717  0.18435286     0.04700
C917        C  0.96122205  0.74200818  0.20020331    -0.20000
C918        C  0.99532698  0.73005887  0.20758213    -0.12300
C919        C  0.02396268  0.71344057  0.19889281     0.13400
C920        C  0.01916896  0.71115729  0.18306985    -0.22700
C921        C  0.92095475  0.75456725  0.17677766    -0.05800
H922        H  0.93930807  0.75467929  0.20681149     0.14900
C923        C  0.05846372  0.69654376  0.20620985    -0.16000
H924        H  0.04106837  0.69871662  0.17634713     0.09300
H925        H  0.88080241  0.59188786  0.13872455     0.07100
H926        H  0.91384155  0.61077997  0.12091603     0.08300
H927        H  0.86416885  0.62617408  0.12549654     0.07400
H928        H  0.08589256  0.80574793  0.16279861     0.02200
H929        H  0.04212743  0.83023925  0.16477101     0.02700
H930        H  0.08042737  0.84377415  0.14793934     0.06200
H931        H  0.90067879  0.76559438  0.18514708     0.05200
H932        H  0.89149626  0.72139908  0.17013397    -0.00600
H933        H  0.94307132  0.78778606  0.16907250     0.00900
H934        H  0.07457382  0.68109848  0.19777617     0.04600
H935        H  0.03591910  0.66557242  0.21454583     0.06500
H936        H  0.09151442  0.72947719  0.21191634     0.07400
loop_ 
_geom_bond_atom_site_label_1 
_geom_bond_atom_site_label_2 
_geom_bond_distance 
_geom_bond_site_symmetry_2 
_ccdc_geom_bond_type 
O1           Cu9   1.984       .  S
O1           C11   1.275   1_655  A
O2           Cu9   1.969       .  S
O2           C12   1.271   1_655  A
O3           Cu9   2.043       .  S
O3           C13   1.283   1_655  A
O4           Cu9   2.051   1_455  S
O4           C14   1.283       .  A
O5          Cu10   1.985       .  S
O5           C14   1.275       .  A
O6          Cu10   1.978       .  S
O6           C13   1.272       .  A
O7          Cu10   2.047       .  S
O7           C12   1.282       .  A
O8          Cu10   2.050       .  S
O8           C11   1.283       .  A
Cu9         Cu10   2.365   1_655  S
C11         C813   1.500       .  S
C12         C845   1.472       .  S
C13         C918   1.481   1_455  S
C14         C877   1.504       .  S
O15         Cu23   1.963       .  S
O15          C25   1.272       .  A
O16         Cu23   1.979       .  S
O16          C26   1.273       .  A
O17         Cu23   2.047       .  S
O17          C27   1.283       .  A
O18         Cu23   2.046   1_545  S
O18          C28   1.283   1_545  A
O19         Cu24   1.980       .  S
O19          C28   1.273       .  A
O20         Cu24   1.988       .  S
O20          C27   1.273       .  A
O21         Cu24   2.038       .  S
O21          C26   1.281       .  A
O22         Cu24   2.038       .  S
O22          C25   1.282       .  A
Cu23        Cu24   2.370       .  S
C25         C781   1.481       .  S
C26         C758   1.476       .  S
C27         C886   1.493       .  S
C28         C717   1.480       .  S
O29         Cu37   1.987       .  S
O29          C39   1.273       .  A
O30         Cu37   1.974       .  S
O30          C40   1.272       .  A
O31         Cu37   2.050       .  S
O31          C41   1.283       .  A
O32         Cu37   2.054       .  S
O32          C42   1.284       .  A
O33         Cu38   1.993       .  S
O33          C42   1.274       .  A
O34         Cu38   1.987       .  S
O34          C41   1.273       .  A
O35         Cu38   2.043       .  S
O35          C40   1.282       .  A
O36         Cu38   2.047       .  S
O36          C39   1.283       .  A
Cu37        Cu38   2.369       .  S
C39         C822   1.484       .  S
C40         C854   1.473       .  S
C41         C685   1.477       .  S
C42         C653   1.506       .  S
O43         Cu51   1.968       .  S
O43          C53   1.271   1_565  A
O44         Cu51   1.985       .  S
O44          C54   1.275   1_565  A
O45         Cu51   2.048   1_545  S
O45          C55   1.283       .  A
O46         Cu51   2.043       .  S
O46          C56   1.283   1_565  A
O47         Cu52   1.981       .  S
O47          C56   1.274       .  A
O48         Cu52   1.988       .  S
O48          C55   1.275       .  A
O49         Cu52   2.034       .  S
O49          C54   1.282       .  A
O50         Cu52   2.032       .  S
O50          C53   1.280       .  A
Cu51        Cu52   2.369   1_565  S
C53         C790   1.463       .  S
C54         C749   1.489       .  S
C55         C662   1.498       .  S
C56         C630   1.485   1_545  S
O57         Cu65   1.983       .  S
O57          C67   1.275   1_565  A
O58         Cu65   1.976       .  S
O58          C68   1.274       .  A
O59         Cu65   2.048       .  S
O59          C69   1.283       .  A
O60         Cu65   2.050       .  S
O60          C70   1.283   1_565  A
O61         Cu66   1.996       .  S
O61          C70   1.276       .  A
O62         Cu66   1.979       .  S
O62          C69   1.273   1_545  A
O63         Cu66   2.036       .  S
O63          C68   1.281   1_545  A
O64         Cu66   2.036       .  S
O64          C67   1.281       .  A
Cu65        Cu66   2.365   1_565  S
C67         C557   1.486       .  S
C68         C534   1.484       .  S
C69         C726   1.485       .  S
C70         C589   1.505       .  S
O71         Cu79   1.972       .  S
O71          C81   1.272       .  A
O72         Cu79   1.975       .  S
O72          C82   1.274       .  A
O73         Cu79   2.046       .  S
O73          C83   1.283       .  A
O74         Cu79   2.041       .  S
O74          C84   1.281       .  A
O75         Cu80   1.996       .  S
O75          C84   1.277       .  A
O76         Cu80   2.002       .  S
O76          C83   1.275       .  A
O77         Cu80   2.029       .  S
O77          C82   1.281       .  A
O78         Cu80   2.027       .  S
O78          C81   1.279       .  A
Cu79        Cu80   2.367       .  S
C81         C470   1.465       .  S
C82         C493   1.482       .  S
C83         C598   1.492       .  S
C84         C429   1.496       .  S
O85         Cu93   2.000       .  S
O85          C95   1.275       .  A
O86         Cu93   1.986       .  S
O86          C96   1.276       .  A
O87         Cu93   2.028       .  S
O87          C97   1.279       .  A
O88         Cu93   2.030       .  S
O88          C98   1.281       .  A
O89         Cu94   1.992       .  S
O89          C98   1.275       .  A
O90         Cu94   1.980       .  S
O90          C97   1.273       .  A
O91         Cu94   2.036       .  S
O91          C96   1.281       .  A
O92         Cu94   2.037       .  S
O92          C95   1.283       .  A
Cu93        Cu94   2.368       .  S
C95         C397   1.503       .  S
C96         C621   1.491       .  S
C97         C525   1.467       .  S
C98         C566   1.481       .  S
O99        Cu107   1.968       .  S
O99         C109   1.271       .  A
O100       Cu107   1.965       .  S
O100        C110   1.271       .  A
O101       Cu107   2.036       .  S
O101        C111   1.281       .  A
O102       Cu107   2.038       .  S
O102        C112   1.282       .  A
O103       Cu108   2.000       .  S
O103        C112   1.276       .  A
O104       Cu108   1.992       .  S
O104        C111   1.275       .  A
O105       Cu108   2.035       .  S
O105        C110   1.281       .  A
O106       Cu108   2.034       .  S
O106        C109   1.281       .  A
Cu107      Cu108   2.372       .  S
C109        C502   1.476       .  S
C110        C461   1.466       .  S
C111        C365   1.482       .  S
C112        C406   1.493       .  S
O113       Cu121   1.991       .  S
O113        C123   1.275       .  A
O114       Cu121   1.994       .  S
O114        C124   1.275       .  A
O115       Cu121   2.043       .  S
O115        C125   1.283       .  A
O116       Cu121   2.042       .  S
O116        C126   1.283       .  A
O117       Cu122   1.970       .  S
O117        C126   1.271       .  A
O118       Cu122   1.980       .  S
O118        C125   1.274       .  A
O119       Cu122   2.045       .  S
O119        C124   1.283       .  A
O120       Cu122   2.040       .  S
O120        C123   1.283       .  A
Cu121      Cu122   2.370       .  S
C123        C374   1.487       .  S
C124        C333   1.482       .  S
C125        C269   1.491       .  S
C126        C301   1.471       .  S
O127       Cu135   1.983       .  S
O127        C137   1.273       .  A
O128       Cu135   1.992       .  S
O128        C138   1.276       .  A
O129       Cu135   2.032       .  S
O129        C139   1.282       .  A
O130       Cu135   2.037       .  S
O130        C140   1.281       .  A
O131       Cu136   1.980       .  S
O131        C140   1.273       .  A
O132       Cu136   1.989       .  S
O132        C139   1.274       .  A
O133       Cu136   2.047       .  S
O133        C138   1.283       .  A
O134       Cu136   2.040       .  S
O134        C137   1.282       .  A
Cu135      Cu136   2.368       .  S
C137        C909   1.484       .  S
C138        C342   1.497       .  S
C139        C214   1.484       .  S
C140        C237   1.471       .  S
O141       Cu149   1.988       .  S
O141        C151   1.274       .  A
O142       Cu149   1.989       .  S
O142        C152   1.274       .  A
O143       Cu149   2.041       .  S
O143        C153   1.281       .  A
O144       Cu149   2.047       .  S
O144        C154   1.283       .  A
O145       Cu150   2.000       .  S
O145        C154   1.275       .  A
O146       Cu150   1.999       .  S
O146        C153   1.277       .  A
O147       Cu150   2.030       .  S
O147        C152   1.280       .  A
O148       Cu150   2.033       .  S
O148        C151   1.281       .  A
Cu149      Cu150   2.369       .  S
C151        C278   1.481       .  S
C152        C310   1.470       .  S
C153        C438   1.492       .  S
C154        C182   1.496       .  S
O155       Cu163   1.988       .  S
O155        C165   1.274   1_655  A
O156       Cu163   1.976       .  S
O156        C166   1.273   1_655  A
O157       Cu163   2.047       .  S
O157        C167   1.284       .  A
O158       Cu163   2.053       .  S
O158        C168   1.284   1_655  A
O159       Cu164   1.994       .  S
O159        C168   1.274       .  A
O160       Cu164   1.995       .  S
O160        C167   1.274   1_455  A
O161       Cu164   2.038       .  S
O161        C166   1.282       .  A
O162       Cu164   2.038       .  S
O162        C165   1.282       .  A
Cu163      Cu164   2.368   1_655  S
C165        C205   1.484       .  S
C166        C246   1.476   1_455  S
C167        C694   1.499       .  S
C168        C173   1.487       .  S
C169        C170   1.404       .  A
C169        C174   1.410       .  A
C169        H179   1.084       .  S
C170        C175   1.492   1_554  S
C170        C171   1.411       .  A
C171        C172   1.406       .  A
C171        C176   1.507       .  S
C172        C173   1.406       .  A
C172        H177   1.084       .  S
C173        C174   1.419       .  A
C174        C178   1.507   1_455  S
C175        C180   1.413       .  A
C175        C184   1.399       .  A
C176        H192   1.110   1_554  S
C176        H193   1.110       .  S
C176        H194   1.111       .  S
C178        H189   1.111       .  S
C178        H190   1.110       .  S
C178        H191   1.106       .  S
C180        C181   1.410       .  A
C180        C185   1.506   1_556  S
C181        C182   1.407       .  A
C181        H186   1.084       .  S
C182        C183   1.423       .  A
C183        C184   1.407       .  A
C183        C187   1.509       .  S
C184        H188   1.084       .  S
C185        H195   1.111       .  S
C185        H196   1.110       .  S
C185        H197   1.110       .  S
C187        H198   1.111       .  S
C187        H199   1.110       .  S
C187        H200   1.109       .  S
C201        C202   1.401   1_455  A
C201        C206   1.405       .  A
C201        H211   1.085       .  S
C202        C207   1.485       .  S
C202        C203   1.409       .  A
C203        C204   1.404       .  A
C203        C208   1.507       .  S
C204        C205   1.408   1_655  A
C204        H209   1.084       .  S
C205        C206   1.420       .  A
C206        C210   1.507       .  S
C207        C212   1.413       .  A
C207        C216   1.400       .  A
C208        H224   1.110       .  S
C208        H225   1.110       .  S
C208        H226   1.111       .  S
C210        H221   1.111       .  S
C210        H222   1.110       .  S
C210        H223   1.101       .  S
C212        C213   1.405       .  A
C212        C217   1.507       .  S
C213        C214   1.405       .  A
C213        H218   1.084       .  S
C214        C215   1.420       .  A
C215        C216   1.405       .  A
C215        C219   1.509       .  S
C216        H220   1.084   1_655  S
C217        H227   1.111       .  S
C217        H228   1.110       .  S
C217        H229   1.110       .  S
C219        H230   1.111   1_655  S
C219        H231   1.109   1_655  S
C219        H232   1.111       .  S
C233        C234   1.399       .  A
C233        C238   1.402       .  A
C233        H243   1.085       .  S
C234        C239   1.480   1_565  S
C234        C235   1.413       .  A
C235        C236   1.405       .  A
C235        C240   1.506       .  S
C236        C237   1.401       .  A
C236        H241   1.084       .  S
C237        C238   1.416       .  A
C238        C242   1.508       .  S
C239        C244   1.408       .  A
C239        C248   1.404   1_655  A
C240        H256   1.110       .  S
C240        H257   1.110       .  S
C240        H258   1.111       .  S
C242        H253   1.111       .  S
C242        H254   1.110   1_655  S
C242        H255   1.108       .  S
C244        C245   1.402       .  A
C244        C249   1.506   1_545  S
C245        C246   1.406       .  A
C245        H250   1.084       .  S
C246        C247   1.412   1_655  A
C247        C248   1.406       .  A
C247        C251   1.506       .  S
C248        H252   1.084       .  S
C249        H259   1.111   1_565  S
C249        H260   1.110       .  S
C249        H261   1.110       .  S
C251        H262   1.111       .  S
C251        H263   1.110       .  S
C251        H264   1.109       .  S
C265        C266   1.403       .  A
C265        C270   1.409       .  A
C265        H275   1.084       .  S
C266        C271   1.483       .  S
C266        C267   1.407       .  A
C267        C268   1.402       .  A
C267        C272   1.507       .  S
C268        C269   1.410       .  A
C268        H273   1.084       .  S
C269        C270   1.418       .  A
C270        C274   1.506       .  S
C271        C276   1.412       .  A
C271        C280   1.399       .  A
C272        H288   1.110       .  S
C272        H289   1.110       .  S
C272        H290   1.111       .  S
C274        H285   1.110       .  S
C274        H286   1.111       .  S
C274        H287   1.110       .  S
C276        C277   1.405       .  A
C276        C281   1.506       .  S
C277        C278   1.404       .  A
C277        H282   1.084       .  S
C278        C279   1.419       .  A
C279        C280   1.403       .  A
C279        C283   1.508       .  S
C280        H284   1.085       .  S
C281        H291   1.111       .  S
C281        H292   1.110       .  S
C281        H293   1.110       .  S
C283        H294   1.110       .  S
C283        H295   1.108       .  S
C283        H296   1.111       .  S
C297        C298   1.404       .  A
C297        C302   1.404       .  A
C297        H307   1.084       .  S
C298        C303   1.482       .  S
C298        C299   1.410       .  A
C299        C300   1.402       .  A
C299        C304   1.507       .  S
C300        C301   1.405       .  A
C300        H305   1.084       .  S
C301        C302   1.414       .  A
C302        C306   1.508       .  S
C303        C308   1.414   1_565  A
C303        C312   1.400   1_665  A
C304        H320   1.110       .  S
C304        H321   1.110       .  S
C304        H322   1.111       .  S
C306        H317   1.111       .  S
C306        H318   1.110       .  S
C306        H319   1.107       .  S
C308        C309   1.404   1_655  A
C308        C313   1.506       .  S
C309        C310   1.400       .  A
C309        H314   1.084       .  S
C310        C311   1.414       .  A
C311        C312   1.402       .  A
C311        C315   1.504       .  S
C312        H316   1.084   1_545  S
C313        H323   1.111       .  S
C313        H324   1.109   1_545  S
C313        H325   1.110   1_545  S
C315        H326   1.110       .  S
C315        H327   1.108       .  S
C315        H328   1.111       .  S
C329        C330   1.402       .  A
C329        C334   1.405       .  A
C329        H339   1.084       .  S
C330        C335   1.491   1_556  S
C330        C331   1.413       .  A
C331        C332   1.410       .  A
C331        C336   1.505       .  S
C332        C333   1.405       .  A
C332        H337   1.084       .  S
C333        C334   1.417       .  A
C334        C338   1.508       .  S
C335        C340   1.408       .  A
C335        C344   1.404       .  A
C336        H352   1.110       .  S
C336        H353   1.110   1_556  S
C336        H354   1.111       .  S
C338        H349   1.111       .  S
C338        H350   1.110       .  S
C338        H351   1.108       .  S
C340        C341   1.403       .  A
C340        C345   1.507       .  S
C341        C342   1.411       .  A
C341        H346   1.084       .  S
C342        C343   1.423       .  A
C343        C344   1.412       .  A
C343        C347   1.508       .  S
C344        H348   1.084       .  S
C345        H355   1.111       .  S
C345        H356   1.110       .  S
C345        H357   1.110       .  S
C347        H358   1.111       .  S
C347        H359   1.103       .  S
C347        H360   1.110       .  S
C361        C362   1.403       .  A
C361        C366   1.407       .  A
C361        H371   1.085       .  S
C362        C367   1.484       .  S
C362        C363   1.408       .  A
C363        C364   1.403       .  A
C363        C368   1.506       .  S
C364        C365   1.407       .  A
C364        H369   1.084       .  S
C365        C366   1.418       .  A
C366        C370   1.508       .  S
C367        C372   1.408       .  A
C367        C376   1.401       .  A
C368        H384   1.110       .  S
C368        H385   1.110       .  S
C368        H386   1.111       .  S
C370        H381   1.110       .  S
C370        H382   1.111       .  S
C370        H383   1.104       .  S
C372        C373   1.406       .  A
C372        C377   1.506       .  S
C373        C374   1.410       .  A
C373        H378   1.084       .  S
C374        C375   1.420       .  A
C375        C376   1.406       .  A
C375        C379   1.509       .  S
C376        H380   1.085       .  S
C377        H387   1.111       .  S
C377        H388   1.110       .  S
C377        H389   1.110       .  S
C379        H390   1.111       .  S
C379        H391   1.103       .  S
C379        H392   1.110       .  S
C393        C394   1.397       .  A
C393        C398   1.406       .  A
C393        H403   1.084       .  S
C394        C399   1.488       .  S
C394        C395   1.410       .  A
C395        C396   1.408       .  A
C395        C400   1.506       .  S
C396        C397   1.410       .  A
C396        H401   1.083       .  S
C397        C398   1.428       .  A
C398        C402   1.509       .  S
C399        C404   1.409       .  A
C399        C408   1.402       .  A
C400        H416   1.110       .  S
C400        H417   1.110       .  S
C400        H418   1.111       .  S
C402        H413   1.110       .  S
C402        H414   1.111       .  S
C402        H415   1.110       .  S
C404        C405   1.406       .  A
C404        C409   1.507       .  S
C405        C406   1.409       .  A
C405        H410   1.084       .  S
C406        C407   1.419       .  A
C407        C408   1.409       .  A
C407        C411   1.507       .  S
C408        H412   1.084       .  S
C409        H419   1.111       .  S
C409        H420   1.110       .  S
C409        H421   1.110       .  S
C411        H422   1.110       .  S
C411        H423   1.111       .  S
C411        H424   1.111       .  S
C425        C426   1.403       .  A
C425        C430   1.408       .  A
C425        H435   1.085       .  S
C426        C431   1.491       .  S
C426        C427   1.408       .  A
C427        C428   1.405       .  A
C427        C432   1.507       .  S
C428        C429   1.412       .  A
C428        H433   1.084       .  S
C429        C430   1.424       .  A
C430        C434   1.509       .  S
C431        C436   1.409       .  A
C431        C440   1.402       .  A
C432        H448   1.109       .  S
C432        H449   1.110       .  S
C432        H450   1.111       .  S
C434        H445   1.111       .  S
C434        H446   1.111       .  S
C434        H447   1.099       .  S
C436        C437   1.405       .  A
C436        C441   1.507       .  S
C437        C438   1.410       .  A
C437        H442   1.084       .  S
C438        C439   1.423       .  A
C439        C440   1.407       .  A
C439        C443   1.507       .  S
C440        H444   1.085       .  S
C441        H451   1.111       .  S
C441        H452   1.109       .  S
C441        H453   1.111       .  S
C443        H454   1.110       .  S
C443        H455   1.101       .  S
C443        H456   1.110       .  S
C457        C458   1.404       .  A
C457        C462   1.403       .  A
C457        H467   1.084       .  S
C458        C463   1.476       .  S
C458        C459   1.408       .  A
C459        C460   1.399       .  A
C459        C464   1.507       .  S
C460        C461   1.403       .  A
C460        H465   1.083       .  S
C461        C462   1.412       .  A
C462        C466   1.507       .  S
C463        C468   1.413   1_655  A
C463        C472   1.399   1_665  A
C464        H480   1.110       .  S
C464        H481   1.110       .  S
C464        H482   1.111       .  S
C466        H477   1.111       .  S
C466        H478   1.110       .  S
C466        H479   1.108       .  S
C468        C469   1.403   1_565  A
C468        C473   1.506   1_455  S
C469        C470   1.400       .  A
C469        H474   1.084       .  S
C470        C471   1.412       .  A
C471        C472   1.399       .  A
C471        C475   1.507       .  S
C472        H476   1.084   1_455  S
C473        H483   1.111   1_655  S
C473        H484   1.110       .  S
C473        H485   1.110       .  S
C475        H486   1.111       .  S
C475        H487   1.108       .  S
C475        H488   1.110       .  S
C489        C490   1.402       .  A
C489        C494   1.406       .  A
C489        H499   1.084       .  S
C490        C495   1.478       .  S
C490        C491   1.408       .  A
C491        C492   1.399       .  A
C491        C496   1.508       .  S
C492        C493   1.407       .  A
C492        H497   1.084       .  S
C493        C494   1.417       .  A
C494        C498   1.507       .  S
C495        C500   1.412       .  A
C495        C504   1.398       .  A
C496        H512   1.109       .  S
C496        H513   1.110       .  S
C496        H514   1.111       .  S
C498        H509   1.111       .  S
C498        H510   1.110       .  S
C498        H511   1.111       .  S
C500        C501   1.406       .  A
C500        C505   1.506       .  S
C501        C502   1.405       .  A
C501        H506   1.084       .  S
C502        C503   1.418       .  A
C503        C504   1.399       .  A
C503        C507   1.509       .  S
C504        H508   1.085       .  S
C505        H515   1.111       .  S
C505        H516   1.110       .  S
C505        H517   1.110       .  S
C507        H518   1.111       .  S
C507        H519   1.109       .  S
C507        H520   1.110       .  S
C521        C522   1.403       .  A
C521        C526   1.406       .  A
C521        H531   1.084       .  S
C522        C527   1.481       .  S
C522        C523   1.413       .  A
C523        C524   1.400       .  A
C523        C528   1.508       .  S
C524        C525   1.399       .  A
C524        H529   1.084       .  S
C525        C526   1.412       .  A
C526        C530   1.506       .  S
C527        C532   1.406       .  A
C527        C536   1.402   1_565  A
C528        H544   1.109       .  S
C528        H545   1.110       .  S
C528        H546   1.111       .  S
C530        H541   1.110       .  S
C530        H542   1.111       .  S
C530        H543   1.109       .  S
C532        C533   1.401   1_655  A
C532        C537   1.507       .  S
C533        C534   1.410       .  A
C533        H538   1.084       .  S
C534        C535   1.420   1_565  A
C535        C536   1.404   1_455  A
C535        C539   1.509       .  S
C536        H540   1.085       .  S
C537        H547   1.111       .  S
C537        H548   1.110       .  S
C537        H549   1.110       .  S
C539        H550   1.110       .  S
C539        H551   1.102       .  S
C539        H552   1.111       .  S
C553        C554   1.404   1_545  A
C553        C558   1.409       .  A
C553        H563   1.084       .  S
C554        C559   1.485       .  S
C554        C555   1.410       .  A
C555        C556   1.401       .  A
C555        C560   1.508       .  S
C556        C557   1.406   1_565  A
C556        H561   1.084       .  S
C557        C558   1.417       .  A
C558        C562   1.506       .  S
C559        C564   1.413       .  A
C559        C568   1.400       .  A
C560        H576   1.109       .  S
C560        H577   1.110       .  S
C560        H578   1.111       .  S
C562        H573   1.110       .  S
C562        H574   1.111       .  S
C562        H575   1.110       .  S
C564        C565   1.406       .  A
C564        C569   1.507       .  S
C565        C566   1.404       .  A
C565        H570   1.084       .  S
C566        C567   1.418       .  A
C567        C568   1.403       .  A
C567        C571   1.508   1_565  S
C568        H572   1.085   1_565  S
C569        H579   1.111       .  S
C569        H580   1.110       .  S
C569        H581   1.110       .  S
C571        H582   1.110       .  S
C571        H583   1.107   1_545  S
C571        H584   1.111   1_545  S
C585        C586   1.404       .  A
C585        C590   1.414       .  A
C585        H595   1.084       .  S
C586        C591   1.492       .  S
C586        C587   1.408       .  A
C587        C588   1.404       .  A
C587        C592   1.507       .  S
C588        C589   1.412       .  A
C588        H593   1.083       .  S
C589        C590   1.422       .  A
C590        C594   1.506   1_545  S
C591        C596   1.412       .  A
C591        C600   1.401       .  A
C592        H608   1.110       .  S
C592        H609   1.110       .  S
C592        H610   1.111       .  S
C594        H605   1.110       .  S
C594        H606   1.111       .  S
C594        H607   1.110       .  S
C596        C597   1.410       .  A
C596        C601   1.505       .  S
C597        C598   1.407       .  A
C597        H602   1.084       .  S
C598        C599   1.420       .  A
C599        C600   1.407       .  A
C599        C603   1.508       .  S
C600        H604   1.084       .  S
C601        H611   1.111       .  S
C601        H612   1.110       .  S
C601        H613   1.110       .  S
C603        H614   1.109       .  S
C603        H615   1.111       .  S
C603        H616   1.111       .  S
C617        C618   1.403   1_545  A
C617        C622   1.409       .  A
C617        H627   1.084       .  S
C618        C623   1.484       .  S
C618        C619   1.407       .  A
C619        C620   1.401       .  A
C619        C624   1.507       .  S
C620        C621   1.408       .  A
C620        H625   1.084       .  S
C621        C622   1.420   1_565  A
C622        C626   1.507       .  S
C623        C628   1.408   1_565  A
C623        C632   1.404       .  A
C624        H640   1.110       .  S
C624        H641   1.110       .  S
C624        H642   1.111       .  S
C626        H637   1.111       .  S
C626        H638   1.110       .  S
C626        H639   1.110       .  S
C628        C629   1.402       .  A
C628        C633   1.507       .  S
C629        C630   1.408   1_545  A
C629        H634   1.084       .  S
C630        C631   1.415       .  A
C631        C632   1.408       .  A
C631        C635   1.506       .  S
C632        H636   1.084       .  S
C633        H643   1.111       .  S
C633        H644   1.110       .  S
C633        H645   1.110       .  S
C635        H646   1.111       .  S
C635        H647   1.109       .  S
C635        H648   1.110       .  S
C649        C650   1.396       .  A
C649        C654   1.404       .  A
C649        H659   1.084       .  S
C650        C655   1.491       .  S
C650        C651   1.411       .  A
C651        C652   1.412       .  A
C651        C656   1.505       .  S
C652        C653   1.411       .  A
C652        H657   1.083       .  S
C653        C654   1.428       .  A
C654        C658   1.509       .  S
C655        C660   1.409       .  A
C655        C664   1.404       .  A
C656        H672   1.110       .  S
C656        H673   1.110       .  S
C656        H674   1.111       .  S
C658        H669   1.110       .  S
C658        H670   1.111       .  S
C658        H671   1.110       .  S
C660        C661   1.403       .  A
C660        C665   1.508       .  S
C661        C662   1.409       .  A
C661        H666   1.084       .  S
C662        C663   1.421       .  A
C663        C664   1.413       .  A
C663        C667   1.506   1_545  S
C664        H668   1.084       .  S
C665        H675   1.111       .  S
C665        H676   1.110       .  S
C665        H677   1.110       .  S
C667        H678   1.110       .  S
C667        H679   1.110       .  S
C667        H680   1.111       .  S
C681        C682   1.401       .  A
C681        C686   1.405       .  A
C681        H691   1.084       .  S
C682        C687   1.487       .  S
C682        C683   1.414       .  A
C683        C684   1.407       .  A
C683        C688   1.507   1_655  S
C684        C685   1.403       .  A
C684        H689   1.084       .  S
C685        C686   1.415       .  A
C686        C690   1.505       .  S
C687        C692   1.411       .  A
C687        C696   1.397   1_655  A
C688        H704   1.110       .  S
C688        H705   1.109   1_455  S
C688        H706   1.111       .  S
C690        H701   1.110       .  S
C690        H702   1.110       .  S
C690        H703   1.107       .  S
C692        C693   1.409       .  A
C692        C697   1.506       .  S
C693        C694   1.409       .  A
C693        H698   1.083       .  S
C694        C695   1.426   1_655  A
C695        C696   1.405       .  A
C695        C699   1.508       .  S
C696        H700   1.084       .  S
C697        H707   1.111       .  S
C697        H708   1.110       .  S
C697        H709   1.109       .  S
C699        H710   1.111       .  S
C699        H711   1.108       .  S
C699        H712   1.109       .  S
C713        C714   1.404   1_545  A
C713        C718   1.408       .  A
C713        H723   1.084       .  S
C714        C719   1.485       .  S
C714        C715   1.409       .  A
C715        C716   1.404       .  A
C715        C720   1.506       .  S
C716        C717   1.405       .  A
C716        H721   1.084       .  S
C717        C718   1.414   1_565  A
C718        C722   1.507       .  S
C719        C724   1.408   1_565  A
C719        C728   1.405       .  A
C720        H736   1.110       .  S
C720        H737   1.110       .  S
C720        H738   1.111       .  S
C722        H733   1.111       .  S
C722        H734   1.110       .  S
C722        H735   1.110       .  S
C724        C725   1.401       .  A
C724        C729   1.507       .  S
C725        C726   1.407   1_545  A
C725        H730   1.084       .  S
C726        C727   1.415       .  A
C727        C728   1.410       .  A
C727        C731   1.506       .  S
C728        H732   1.084       .  S
C729        H739   1.111       .  S
C729        H740   1.110       .  S
C729        H741   1.110       .  S
C731        H742   1.111       .  S
C731        H743   1.110       .  S
C731        H744   1.111       .  S
C745        C746   1.403   1_545  A
C745        C750   1.407       .  A
C745        H755   1.084       .  S
C746        C751   1.484       .  S
C746        C747   1.408       .  A
C747        C748   1.403       .  A
C747        C752   1.507       .  S
C748        C749   1.409   1_565  A
C748        H753   1.084       .  S
C749        C750   1.418       .  A
C750        C754   1.507       .  S
C751        C756   1.413       .  A
C751        C760   1.400       .  A
C752        H768   1.109       .  S
C752        H769   1.110       .  S
C752        H770   1.111       .  S
C754        H765   1.111       .  S
C754        H766   1.110       .  S
C754        H767   1.111       .  S
C756        C757   1.407       .  A
C756        C761   1.506       .  S
C757        C758   1.403       .  A
C757        H762   1.084       .  S
C758        C759   1.415       .  A
C759        C760   1.402       .  A
C759        C763   1.508       .  S
C760        H764   1.084       .  S
C761        H771   1.111       .  S
C761        H772   1.110       .  S
C761        H773   1.110       .  S
C763        H774   1.111       .  S
C763        H775   1.109   1_565  S
C763        H776   1.111       .  S
C777        C778   1.404   1_655  A
C777        C782   1.406   1_655  A
C777        H787   1.084       .  S
C778        C783   1.477   1_465  S
C778        C779   1.405   1_565  A
C779        C780   1.397       .  A
C779        C784   1.507       .  S
C780        C781   1.409   1_545  A
C780        H785   1.084       .  S
C781        C782   1.414       .  A
C782        C786   1.506       .  S
C783        C788   1.410       .  A
C783        C792   1.402       .  A
C784        H800   1.110       .  S
C784        H801   1.110       .  S
C784        H802   1.111       .  S
C786        H797   1.111   1_455  S
C786        H798   1.110       .  S
C786        H799   1.111       .  S
C788        C789   1.400       .  A
C788        C793   1.507       .  S
C789        C790   1.401       .  A
C789        H794   1.085       .  S
C790        C791   1.412       .  A
C791        C792   1.402       .  A
C791        C795   1.506       .  S
C792        H796   1.084       .  S
C793        H803   1.111       .  S
C793        H804   1.110   1_545  S
C793        H805   1.110   1_655  S
C795        H806   1.110   1_545  S
C795        H807   1.109       .  S
C795        H808   1.110       .  S
C809        C810   1.403   1_455  A
C809        C814   1.412       .  A
C809        H819   1.084       .  S
C810        C815   1.488       .  S
C810        C811   1.407       .  A
C811        C812   1.403       .  A
C811        C816   1.507       .  S
C812        C813   1.412   1_655  A
C812        H817   1.083       .  S
C813        C814   1.421       .  A
C814        C818   1.506       .  S
C815        C820   1.412       .  A
C815        C824   1.401       .  A
C816        H832   1.110       .  S
C816        H833   1.110       .  S
C816        H834   1.111       .  S
C818        H829   1.109       .  S
C818        H830   1.111       .  S
C818        H831   1.110       .  S
C820        C821   1.408       .  A
C820        C825   1.506       .  S
C821        C822   1.405       .  A
C821        H826   1.083       .  S
C822        C823   1.417       .  A
C823        C824   1.405       .  A
C823        C827   1.508       .  S
C824        H828   1.084       .  S
C825        H835   1.111       .  S
C825        H836   1.110       .  S
C825        H837   1.110       .  S
C827        H838   1.111       .  S
C827        H839   1.109   1_655  S
C827        H840   1.111       .  S
C841        C842   1.399   1_655  A
C841        C846   1.402       .  A
C841        H851   1.084       .  S
C842        C847   1.482   1_465  S
C842        C843   1.413       .  A
C843        C844   1.406       .  A
C843        C848   1.506   1_565  S
C844        C845   1.401       .  A
C844        H849   1.084       .  S
C845        C846   1.415   1_455  A
C846        C850   1.508       .  S
C847        C852   1.408   1_655  A
C847        C856   1.404       .  A
C848        H864   1.110       .  S
C848        H865   1.110       .  S
C848        H866   1.111       .  S
C850        H861   1.110   1_655  S
C850        H862   1.111       .  S
C850        H863   1.109       .  S
C852        C853   1.402   1_455  A
C852        C857   1.506       .  S
C853        C854   1.405       .  A
C853        H858   1.085   1_655  S
C854        C855   1.414       .  A
C855        C856   1.406       .  A
C855        C859   1.507       .  S
C856        H860   1.084   1_545  S
C857        H867   1.111       .  S
C857        H868   1.110       .  S
C857        H869   1.110       .  S
C859        H870   1.110   1_545  S
C859        H871   1.107       .  S
C859        H872   1.111       .  S
C873        C874   1.404       .  A
C873        C878   1.413       .  A
C873        H883   1.084       .  S
C874        C879   1.488       .  S
C874        C875   1.407       .  A
C875        C876   1.402       .  A
C875        C880   1.508       .  S
C876        C877   1.413       .  A
C876        H881   1.083       .  S
C877        C878   1.422       .  A
C878        C882   1.506   1_455  S
C879        C884   1.412       .  A
C879        C888   1.398       .  A
C880        H896   1.110       .  S
C880        H897   1.110       .  S
C880        H898   1.111       .  S
C882        H893   1.111       .  S
C882        H894   1.110       .  S
C882        H895   1.110       .  S
C884        C885   1.410       .  A
C884        C889   1.505       .  S
C885        C886   1.408       .  A
C885        H890   1.084       .  S
C886        C887   1.422       .  A
C887        C888   1.404       .  A
C887        C891   1.509       .  S
C888        H892   1.084       .  S
C889        H899   1.111       .  S
C889        H900   1.110       .  S
C889        H901   1.110       .  S
C891        H902   1.109       .  S
C891        H903   1.111       .  S
C891        H904   1.111       .  S
C905        C906   1.397       .  A
C905        C910   1.402       .  A
C905        H915   1.084       .  S
C906        C911   1.481       .  S
C906        C907   1.411   1_655  A
C907        C908   1.407       .  A
C907        C912   1.506       .  S
C908        C909   1.405   1_455  A
C908        H913   1.084       .  S
C909        C910   1.420       .  A
C910        C914   1.509       .  S
C911        C916   1.412       .  A
C911        C920   1.398   1_655  A
C912        H928   1.110       .  S
C912        H929   1.110       .  S
C912        H930   1.111       .  S
C914        H925   1.111       .  S
C914        H926   1.111       .  S
C914        H927   1.109       .  S
C916        C917   1.405       .  A
C916        C921   1.506       .  S
C917        C918   1.403       .  A
C917        H922   1.083       .  S
C918        C919   1.420   1_655  A
C919        C920   1.404       .  A
C919        C923   1.508       .  S
C920        H924   1.084       .  S
C921        H931   1.111       .  S
C921        H932   1.110       .  S
C921        H933   1.110       .  S
C923        H934   1.111       .  S
C923        H935   1.110       .  S
C923        H936   1.109       .  S
