geometry optimzed in LAMMPS
_audit_creation_date              2020-12-01 
_audit_creation_method            'lammps2cif' 
_symmetry_space_group_name_H-M    'P1' 
_symmetry_Int_Tables_number       1 
_symmetry_cell_setting            triclinic 
loop_ 
_symmetry_equiv_pos_as_xyz 
  x,y,z 
_cell_length_a                    65.91351882 
_cell_length_b                    66.10479052064298 
_cell_length_c                    43.4266089227859 
_cell_angle_alpha                 89.8595712939023 
_cell_angle_beta                  90.01976724212632 
_cell_angle_gamma                 90.00956239735572 
loop_ 
_atom_site_label 
_atom_site_type_symbol 
_atom_site_fract_x 
_atom_site_fract_y 
_atom_site_fract_z 
_atom_site_charge 
O1          O  0.11075344  0.24685861  0.97522237    -0.56800
C2          C  0.10654917  0.29591917  0.02964224     0.75800
O3          O  0.15679729  0.29528633  0.96084768    -0.58000
C4          C  0.11768915  0.24149672  0.94932604     0.75800
C5          C  0.09470761  0.30232311  0.92993614     0.78100
Cd6        Cd  0.12202557  0.28206662  0.97185859     1.37500
O7          O  0.10720344  0.27727821  0.02303922    -0.56800
O8          O  0.08942415  0.28783895  0.94719566    -0.55700
C9          C  0.16471366  0.28692532  0.98430258     0.78100
O10         O  0.11311518  0.30788244  0.93179974    -0.58000
O11         O  0.11258523  0.30809343  0.00905225    -0.56500
O12         O  0.12765411  0.25471575  0.93452956    -0.56500
O13         O  0.15310846  0.27627453  0.00082108    -0.55600
O14         O  0.01334792  0.10688033  0.78386570    -0.56800
C15         C  0.06384964  0.10974262  0.72703693     0.75800
O16         O  0.07517398  0.10393159  0.82531526    -0.58000
C17         C  0.00882867  0.10105154  0.81081791     0.75800
C18         C  0.05369842  0.05190742  0.78104840     0.78100
Cd19       Cd  0.04910653  0.09530286  0.78599386     1.37500
O20         O  0.04526806  0.11077234  0.73431460    -0.56800
O21         O  0.04130703  0.06187095  0.76470370    -0.55700
C22         C  0.07147218  0.12275515  0.82462191     0.78100
O23         O  0.06391608  0.06200283  0.80038650    -0.58000
O24         O  0.07508492  0.10131103  0.74685312    -0.56500
O25         O  0.02263292  0.09196975  0.82565939    -0.56500
O26         O  0.05759431  0.12838034  0.80646493    -0.55600
O27         O  0.88696574  0.18157449  0.03029801    -0.56800
C28         C  0.86987878  0.21424305  0.95470791     0.75800
O29         O  0.87492322  0.14737598  0.94205005    -0.58000
C30         C  0.88676207  0.16349613  0.04005886     0.75800
C31         C  0.82707985  0.16755439  0.99939727     0.78100
Cd32       Cd  0.86872565  0.17412547  0.98191526     1.37500
O33         O  0.87887751  0.20991356  0.97961351    -0.56800
O34         O  0.83833476  0.18049063  0.01228449    -0.55700
C35         C  0.89386831  0.15066077  0.94074273     0.78100
O36         O  0.83496064  0.15770042  0.97741226    -0.58000
O37         O  0.85989233  0.19997319  0.94255237    -0.56500
O38         O  0.87866141  0.15053411  0.02256009    -0.56500
O39         O  0.90038834  0.16482260  0.95753810    -0.55600
O40         O  0.96575902  0.35380905  0.79902772    -0.56800
C41         C  0.91734016  0.35569962  0.74155202     0.75800
O42         O  0.90727487  0.35879921  0.84364488    -0.58000
C43         C  0.97167018  0.36083185  0.82460881     0.75800
C44         C  0.92687213  0.41135134  0.79709720     0.78100
Cd45       Cd  0.93129660  0.36812059  0.80131716     1.37500
O46         O  0.93603305  0.35759344  0.74761325    -0.56800
O47         O  0.94000568  0.40155654  0.78204261    -0.55700
C48         C  0.91177754  0.34015695  0.84227472     0.78100
O49         O  0.91553461  0.40109108  0.81482149    -0.58000
O50         O  0.90511173  0.35973399  0.76314044    -0.56500
O51         O  0.95926706  0.37224290  0.83847267    -0.56500
O52         O  0.92414861  0.33499391  0.82153910    -0.55600
O53         O  0.10996447  0.68290528  0.50284688    -0.56800
C54         C  0.12729912  0.71457894  0.58249398     0.75800
O55         O  0.11939106  0.65046708  0.59338504    -0.58000
C56         C  0.10835861  0.66447859  0.49521182     0.75800
C57         C  0.16931069  0.66921530  0.53987758     0.78100
Cd58       Cd  0.12720607  0.67572960  0.55251554     1.37500
O59         O  0.11937033  0.71222485  0.55611095    -0.56800
O60         O  0.15978401  0.68462719  0.53045851    -0.55700
C61         C  0.10085275  0.65551914  0.59514096     0.78100
O62         O  0.15932043  0.65632105  0.55532049    -0.58000
O63         O  0.13582409  0.69919720  0.59411585    -0.56500
O64         O  0.11577861  0.65158638  0.51356846    -0.56500
O65         O  0.09507031  0.66968221  0.57761612    -0.55600
O66         O  0.01329485  0.84412455  0.73346893    -0.56800
C67         C  0.06278823  0.84470678  0.79292943     0.75800
O68         O  0.07634869  0.85132807  0.69875565    -0.58000
C69         C  0.00807925  0.85246613  0.70836045     0.75800
C70         C  0.05119383  0.90092376  0.74539267     0.78100
Cd71       Cd  0.04789868  0.85826450  0.73452358     1.37500
O72         O  0.04388661  0.84606034  0.78785126    -0.56800
O73         O  0.04062994  0.88934424  0.76211657    -0.55700
C74         C  0.07149569  0.83295403  0.69464297     0.78100
O75         O  0.06000801  0.89280943  0.72256073    -0.58000
O76         O  0.07447134  0.84892360  0.77076777    -0.56500
O77         O  0.02111419  0.86406168  0.69616719    -0.56500
O78         O  0.05572495  0.82673529  0.70829193    -0.55600
O79         O  0.87052083  0.78832655  0.49714442    -0.56800
C80         C  0.86421430  0.74526355  0.56407498     0.75800
O81         O  0.86627690  0.81113924  0.59104005    -0.58000
C82         C  0.87027576  0.80743148  0.49478358     0.75800
C83         C  0.81301908  0.78778583  0.54599203     0.78100
Cd84       Cd  0.85688388  0.78692729  0.54949946     1.37500
O85         O  0.87032150  0.75273946  0.53880483    -0.56800
O86         O  0.82403295  0.77923204  0.52606805    -0.55700
C87         C  0.88419873  0.80434420  0.59384506     0.78100
O88         O  0.82232923  0.79641410  0.56790175    -0.58000
O89         O  0.85429481  0.75689107  0.58162977    -0.56500
O90         O  0.86374155  0.81708922  0.51783147    -0.56500
O91         O  0.88891153  0.78967697  0.57667722    -0.55600
O92         O  0.97241191  0.60999188  0.72373518    -0.56800
C93         C  0.92650852  0.62068635  0.78024079     0.75800
O94         O  0.91081339  0.60763617  0.68327539    -0.58000
C95         C  0.97694623  0.60141489  0.69868304     0.75800
C96         C  0.92837959  0.55927852  0.74152818     0.78100
Cd97       Cd  0.93675315  0.60049531  0.72420951     1.37500
O98         O  0.94463022  0.62035633  0.77058905    -0.56800
O99         O  0.94136068  0.57005099  0.75531188    -0.55700
C100        C  0.91441646  0.62648453  0.68289314     0.78100
O101        O  0.91942949  0.56748362  0.71886649    -0.58000
O102        O  0.91357755  0.61118609  0.76431187    -0.56500
O103        O  0.96289154  0.59144667  0.68587127    -0.56500
O104        O  0.92841901  0.63241704  0.70049657    -0.55600
O105        O  0.44496491  0.85009714  0.23897890    -0.56800
C106        C  0.48207234  0.85695704  0.31189340     0.75800
O107        O  0.42783461  0.89628188  0.30928193    -0.58000
C108        C  0.42622019  0.85049840  0.23257626     0.75800
C109        C  0.41805524  0.83426509  0.32746931     0.78100
Cd110      Cd  0.44080700  0.86297739  0.29158466     1.37500
O111        O  0.47628090  0.85252428  0.28497966    -0.56800
O112        O  0.43234109  0.82935416  0.30958747    -0.55700
C113        C  0.43581775  0.90600195  0.28719329     0.78100
O114        O  0.41432340  0.85302067  0.32974453    -0.58000
O115        O  0.46894537  0.86499574  0.32929992    -0.56500
O116        O  0.41448246  0.85686898  0.25343941    -0.56500
O117        O  0.44582011  0.89577000  0.26792410    -0.55600
O118        O  0.60316616  0.77526765  0.53164522    -0.56800
C119        C  0.61884237  0.74215374  0.45151927     0.75800
O120        O  0.61423783  0.80667069  0.44142187    -0.58000
C121        C  0.60158800  0.79397136  0.53766891     0.75800
C122        C  0.66304486  0.78591765  0.49737105     0.78100
Cd123      Cd  0.62107010  0.78068861  0.48197997     1.37500
O124        O  0.60964677  0.74523380  0.47674030    -0.56800
O125        O  0.65228448  0.77191365  0.50873502    -0.55700
C126        C  0.59574520  0.80161867  0.43847563     0.78100
O127        O  0.65445856  0.79755893  0.47809339    -0.58000
O128        O  0.63019768  0.75632405  0.44211791    -0.56500
O129        O  0.60950028  0.80608072  0.51855844    -0.56500
O130        O  0.58983033  0.78704113  0.45503874    -0.55600
O131        O  0.37404147  0.68353469  0.50760326    -0.56800
C132        C  0.35814184  0.71397033  0.43229183     0.75800
O133        O  0.36455072  0.64683285  0.42210010    -0.58000
C134        C  0.37729970  0.66541347  0.51567833     0.75800
C135        C  0.31569115  0.66801659  0.47502949     0.78100
Cd136      Cd  0.35726095  0.67465866  0.45913621     1.37500
O137        O  0.36840478  0.70962633  0.45601752    -0.56800
O138        O  0.32746509  0.67879123  0.49104054    -0.55700
C139        C  0.38199980  0.65358553  0.41524896     0.78100
O140        O  0.32306602  0.66008591  0.45095673    -0.58000
O141        O  0.34638632  0.70037343  0.42222109    -0.56500
O142        O  0.37140261  0.65169269  0.49746395    -0.56500
O143        O  0.38745767  0.66963042  0.42861156    -0.55600
O144        O  0.50853071  0.61299470  0.27649363    -0.56800
C145        C  0.55544019  0.62004506  0.21727184     0.75800
O146        O  0.57276105  0.61213178  0.31198107    -0.58000
C147        C  0.50451196  0.60535013  0.30255699     0.75800
C148        C  0.55169293  0.56039104  0.26636086     0.78100
Cd149      Cd  0.54463111  0.60305828  0.27601164     1.37500
O150        O  0.53713599  0.61623488  0.22397961    -0.56800
O151        O  0.54045638  0.57096209  0.24910048    -0.55700
C152        C  0.56611588  0.62982853  0.31704574     0.78100
O153        O  0.55974665  0.56949298  0.28891878    -0.58000
O154        O  0.56852704  0.61619143  0.23776914    -0.56500
O155        O  0.51892451  0.59610871  0.31572640    -0.56500
O156        O  0.55016459  0.63482660  0.30275002    -0.55600
O157        O  0.38529210  0.27950426  0.01974451    -0.56800
C158        C  0.36282256  0.23847380  0.07574546     0.75800
O159        O  0.36908216  0.28843291  0.10468017    -0.58000
C160        C  0.37601623  0.28723598  0.99708293     0.75800
C161        C  0.31262376  0.28423357  0.04548952     0.78100
Cd162      Cd  0.35558251  0.27899115  0.05409533     1.37500
O163        O  0.35303540  0.25124414  0.09149983    -0.56800
O164        O  0.32230880  0.26890798  0.03630004    -0.55700
C165        C  0.37687562  0.30497506  0.09613182     0.78100
O166        O  0.32286101  0.29748471  0.05970111    -0.58000
O167        O  0.36842219  0.24420324  0.04923141    -0.56500
O168        O  0.35711894  0.28984325  0.00009920    -0.56500
O169        O  0.37286154  0.31058015  0.06895134    -0.55600
O170        O  0.50632673  0.35849146  0.21496728    -0.56800
C171        C  0.54973405  0.35459843  0.27369880     0.75800
O172        O  0.57070296  0.36029219  0.17913918    -0.58000
C173        C  0.50126206  0.36493915  0.18864490     0.75800
C174        C  0.54681109  0.41168987  0.21938490     0.78100
Cd175      Cd  0.54140951  0.36903501  0.21279789     1.37500
O176        O  0.53197707  0.35476954  0.26279840    -0.56800
O177        O  0.53346512  0.40200690  0.23413897    -0.55700
C178        C  0.56458938  0.34249051  0.17371660     0.78100
O179        O  0.55757864  0.40174009  0.20064247    -0.58000
O180        O  0.56371475  0.36081780  0.25611602    -0.56500
O181        O  0.51496369  0.37387325  0.17329556    -0.56500
O182        O  0.54800711  0.33735722  0.18607027    -0.55600
O183        O  0.48254244  0.10333808  0.23829147    -0.56800
C184        C  0.43507429  0.11459019  0.29538940     0.75800
O185        O  0.41863679  0.10531971  0.19830215    -0.58000
C186        C  0.48516173  0.10216893  0.20951189     0.75800
C187        C  0.43596618  0.05555454  0.24620264     0.78100
Cd188      Cd  0.44535742  0.09768129  0.23666985     1.37500
O189        O  0.45330892  0.11404198  0.28630515    -0.56800
O190        O  0.45028178  0.06442422  0.26005136    -0.55700
C191        C  0.42147538  0.12427511  0.19867349     0.78100
O192        O  0.42643449  0.06593926  0.22643408    -0.58000
O193        O  0.42189317  0.10738463  0.27738033    -0.56500
O194        O  0.46978861  0.09762504  0.19350035    -0.56500
O195        O  0.43554163  0.13038858  0.21615273    -0.55600
O196        O  0.61888137  0.18230185  0.00772216    -0.56800
C197        C  0.62617529  0.21765328  0.08166534     0.75800
O198        O  0.62711566  0.15225162  0.10171599    -0.58000
C199        C  0.62104993  0.16419732  0.99878306     0.75800
C200        C  0.67804512  0.17280611  0.05326005     0.78100
Cd201      Cd  0.63424855  0.17692916  0.05900658     1.37500
O202        O  0.62005808  0.21161746  0.05567303    -0.56800
O203        O  0.66737261  0.18260388  0.03415877    -0.55700
C204        C  0.60822816  0.15140058  0.09646753     0.78100
O205        O  0.66845103  0.16473647  0.07537047    -0.58000
O206        O  0.63660536  0.20509477  0.09693803    -0.56500
O207        O  0.62962246  0.15218135  0.01744594    -0.56500
O208        O  0.60180632  0.16210213  0.07441859    -0.55600
O209        O  0.61063291  0.25004623  0.53341541    -0.56800
C210        C  0.60064669  0.29898621  0.47535473     0.75800
O211        O  0.61374011  0.31331072  0.56987956    -0.58000
C212        C  0.61701724  0.24712235  0.56062542     0.75800
C213        C  0.66222014  0.28992607  0.51859777     0.78100
Cd214      Cd  0.61971674  0.28612045  0.53172785     1.37500
O215        O  0.60111678  0.28044686  0.48278376    -0.56800
O216        O  0.65157593  0.27551957  0.50841160    -0.55700
C217        C  0.59570505  0.30778513  0.57569017     0.78100
O218        O  0.65327457  0.30270801  0.53553091    -0.58000
O219        O  0.60916424  0.31115012  0.49364335    -0.56500
O220        O  0.62512176  0.26208737  0.57398985    -0.56500
O221        O  0.58931531  0.29244097  0.56131784    -0.55600
O222        O  0.55756348  0.11240366  0.78250633    -0.56800
C223        C  0.52103547  0.10278263  0.71341391     0.75800
O224        O  0.58980587  0.10914241  0.69211085    -0.58000
C225        C  0.57559817  0.11795898  0.78759132     0.75800
C226        C  0.57200628  0.05887951  0.73661815     0.78100
Cd227      Cd  0.56298480  0.10077412  0.72992310     1.37500
O228        O  0.52875449  0.11426985  0.73350796    -0.56800
O229        O  0.56322493  0.06902534  0.75729316    -0.55700
C230        C  0.58054697  0.12445191  0.68156954     0.78100
O231        O  0.57684585  0.06813914  0.71217156    -0.58000
O232        O  0.53248957  0.08927648  0.70231885    -0.56500
O233        O  0.58790369  0.11646663  0.76534341    -0.56500
O234        O  0.56358838  0.12854246  0.69358347    -0.55600
O235        O  0.48576561  0.35192572  0.74916607    -0.56800
C236        C  0.43660511  0.34816365  0.80448721     0.75800
O237        O  0.43456787  0.39560742  0.72929491    -0.58000
C238        C  0.49066320  0.35851856  0.72278185     0.75800
C239        C  0.43168580  0.33447663  0.70466750     0.78100
Cd240      Cd  0.45027464  0.36320937  0.74588048     1.37500
O241        O  0.45533411  0.34977958  0.79847483    -0.56800
O242        O  0.44733582  0.33060360  0.72035460    -0.55700
C243        C  0.44375420  0.40646803  0.74886361     0.78100
O244        O  0.42402488  0.35193785  0.70790819    -0.58000
O245        O  0.42450126  0.35381253  0.78357163    -0.56500
O246        O  0.47751027  0.36887803  0.70852294    -0.56500
O247        O  0.45574935  0.39728074  0.76684656    -0.55600
O248        O  0.38824032  0.17914109  0.51407021    -0.56800
C249        C  0.38347824  0.21020995  0.59261674     0.75800
O250        O  0.33790013  0.15884683  0.57277287    -0.58000
C251        C  0.38646587  0.16124360  0.50408609     0.75800
C252        C  0.39790363  0.14550191  0.59971243     0.78100
Cd253      Cd  0.37273548  0.17236306  0.56434008     1.37500
O254        O  0.38574536  0.20713496  0.56408693    -0.56800
O255        O  0.40460539  0.15668545  0.57837969    -0.55700
C256        C  0.32919027  0.17239495  0.55685999     0.78100
O257        O  0.37896226  0.14637508  0.60481242    -0.58000
O258        O  0.37574285  0.19590708  0.60808867    -0.56500
O259        O  0.37780725  0.14876251  0.52188299    -0.56500
O260        O  0.34058531  0.18576061  0.54529464    -0.55600
O261        O  0.11120844  0.75049517  0.06418285    -0.56800
C262        C  0.11056556  0.79803177  0.00295721     0.75800
O263        O  0.11625218  0.81188312  0.09936048    -0.58000
C264        C  0.12092787  0.74498736  0.08791769     0.75800
C265        C  0.16718443  0.79003740  0.04906164     0.78100
Cd266      Cd  0.12509643  0.78460765  0.06194976     1.37500
O267        O  0.11292228  0.77937417  0.00883310    -0.56800
O268        O  0.15548383  0.77960335  0.03241142    -0.55700
C269        C  0.09764443  0.80687731  0.10013078     0.78100
O270        O  0.15958478  0.79787919  0.07312257    -0.58000
O271        O  0.11423926  0.81006550  0.02485973    -0.56500
O272        O  0.13375331  0.75734856  0.09868354    -0.56500
O273        O  0.09268238  0.79140407  0.08487801    -0.55600
O274        O  0.03382420  0.61635060  0.28402464    -0.56800
C275        C  0.00023686  0.60980419  0.20685863     0.75800
O276        O  0.06399312  0.60623082  0.19152722    -0.58000
C277        C  0.05145610  0.61272186  0.29432296     0.75800
C278        C  0.04215214  0.55739606  0.24336025     0.78100
Cd279      Cd  0.03927105  0.60017224  0.23401920     1.37500
O280        O  0.00515626  0.61574186  0.23351666    -0.56800
O281        O  0.02866368  0.56793439  0.25640743    -0.55700
C282        C  0.06707959  0.62452304  0.19886035     0.78100
O283        O  0.05377378  0.56652215  0.22471798    -0.58000
O284        O  0.01306364  0.59877810  0.19317995    -0.56500
O285        O  0.06310847  0.60270906  0.27695620    -0.56500
O286        O  0.05721822  0.63110587  0.22164704    -0.55600
O287        O  0.94218916  0.85912347  0.28434122    -0.56800
C288        C  0.97570663  0.86265349  0.20894891     0.75800
O289        O  0.90968577  0.86656188  0.19267353    -0.58000
C290        C  0.92423552  0.86180611  0.29377058     0.75800
C291        C  0.93587066  0.91647222  0.23692872     0.78100
Cd292      Cd  0.93620150  0.87281310  0.23252872     1.37500
O293        O  0.97021781  0.85782129  0.23586369    -0.56800
O294        O  0.94778130  0.90535682  0.25223415    -0.55700
C295        C  0.91000655  0.84749059  0.19578482     0.78100
O296        O  0.92385559  0.90741921  0.21881372    -0.58000
O297        O  0.96296818  0.87244798  0.19297769    -0.56500
O298        O  0.91196724  0.86956208  0.27468457    -0.56500
O299        O  0.92217166  0.84055415  0.21566077    -0.55600
O300        O  0.87942002  0.69639189  0.99176785    -0.56800
C301        C  0.86403146  0.73078292  0.06797330     0.75800
O302        O  0.82560910  0.67734944  0.04741932    -0.58000
C303        C  0.87597421  0.67882157  0.98135942     0.75800
C304        C  0.88580518  0.66684479  0.07916103     0.78100
Cd305      Cd  0.86004923  0.69144927  0.03994998     1.37500
O306        O  0.87237666  0.72669081  0.04247390    -0.56800
O307        O  0.89227896  0.68101724  0.06228551    -0.55700
C308        C  0.81749292  0.68750685  0.02584597     0.78100
O309        O  0.86677910  0.66389989  0.07863167    -0.58000
O310        O  0.85301302  0.71712887  0.07975527    -0.56500
O311        O  0.86497711  0.66761047  0.99806212    -0.56500
O312        O  0.82890986  0.69985152  0.01180599    -0.55600
O313        O  0.13029196  0.22493243  0.48067302    -0.56800
C314        C  0.12201001  0.17239797  0.53213880     0.75800
O315        O  0.13490851  0.16401665  0.43587837    -0.58000
C316        C  0.13781755  0.22973570  0.45481787     0.75800
C317        C  0.18217603  0.18316377  0.49367468     0.78100
Cd318      Cd  0.14031734  0.18896148  0.47776368     1.37500
O319        O  0.12127593  0.19123951  0.52664386    -0.56800
O320        O  0.17025127  0.19383154  0.50962379    -0.55700
C321        C  0.11610034  0.16764929  0.43308486     0.78100
O322        O  0.17491485  0.17557311  0.46925069    -0.58000
O323        O  0.13104107  0.16156417  0.51249155    -0.56500
O324        O  0.14747011  0.21598135  0.44088825    -0.56500
O325        O  0.10894499  0.18136181  0.45019322    -0.55600
O326        O  0.04316288  0.34944292  0.24524428    -0.56800
C327        C  0.00974550  0.35672846  0.32063871     0.75800
O328        O  0.07966554  0.36079163  0.33177449    -0.58000
C329        C  0.06151023  0.34668336  0.23799897     0.75800
C330        C  0.05078000  0.40720504  0.28587513     0.78100
Cd331      Cd  0.04996172  0.36393978  0.29636381     1.37500
O332        O  0.01641187  0.34749284  0.29724442    -0.56800
O333        O  0.03928886  0.39541780  0.27111149    -0.55700
C334        C  0.07482948  0.34338948  0.34161923     0.78100
O335        O  0.06235121  0.39897263  0.30552005    -0.58000
O336        O  0.02180115  0.36932251  0.33278199    -0.56500
O337        O  0.07462444  0.35166885  0.25782555    -0.56500
O338        O  0.05876427  0.33584753  0.33059778    -0.55600
O339        O  0.87023089  0.25646873  0.48036380    -0.56800
C340        C  0.86786291  0.30602530  0.53375996     0.75800
O341        O  0.86592253  0.31623401  0.43307010    -0.58000
C342        C  0.86625511  0.25028130  0.45348968     0.75800
C343        C  0.81288291  0.29400458  0.47693621     0.78100
Cd344      Cd  0.85653055  0.29081776  0.47382291     1.37500
O345        O  0.86868999  0.28736176  0.52738323    -0.56800
O346        O  0.82316108  0.28270248  0.49451184    -0.55700
C347        C  0.88486534  0.31368655  0.43658967     0.78100
O348        O  0.82269871  0.30358201  0.45645861    -0.58000
O349        O  0.86138164  0.31750532  0.51257689    -0.56500
O350        O  0.85654895  0.26247065  0.43642699    -0.56500
O351        O  0.88999116  0.30069184  0.45648100    -0.55600
O352        O  0.96026144  0.11737133  0.25335488    -0.56800
C353        C  0.99542427  0.10868350  0.33158791     0.75800
O354        O  0.92977526  0.11434356  0.34747150    -0.58000
C355        C  0.94159594  0.12031795  0.24797106     0.75800
C356        C  0.94628895  0.06409137  0.29378128     0.78100
Cd357      Cd  0.95490807  0.10576389  0.30695294     1.37500
O358        O  0.99037838  0.11695110  0.30638211    -0.56800
O359        O  0.96096247  0.07363025  0.28195717    -0.55700
C360        C  0.93322682  0.13322059  0.34598824     0.78100
O361        O  0.93601126  0.07342997  0.31394163    -0.58000
O362        O  0.98175497  0.09856858  0.34519276    -0.56500
O363        O  0.92967802  0.11736231  0.27030229    -0.56500
O364        O  0.94722230  0.13874083  0.32791254    -0.55600
O365        O  0.36799244  0.75036882  0.97090887    -0.56800
C366        C  0.37076644  0.80018341  0.03019522     0.75800
O367        O  0.36429097  0.81013886  0.92930031    -0.58000
C368        C  0.36101371  0.74690429  0.94420230     0.75800
C369        C  0.31383998  0.78994602  0.98322962     0.78100
Cd370      Cd  0.35645877  0.78608834  0.97202913     1.37500
O371        O  0.37024186  0.78141532  0.02428389    -0.56800
O372        O  0.32409398  0.77513799  0.99306484    -0.55700
C373        C  0.38337740  0.80775886  0.93111700     0.78100
O374        O  0.32311610  0.80306118  0.96717743    -0.58000
O375        O  0.36469351  0.81214092  0.00940603    -0.56500
O376        O  0.35110179  0.76114358  0.93172916    -0.56500
O377        O  0.38956917  0.79557201  0.95157491    -0.55600
O378        O  0.61658203  0.71664226  0.95714775    -0.56800
C379        C  0.61003841  0.66764830  0.01216431     0.75800
O380        O  0.62032348  0.65558739  0.91439474    -0.58000
C381        C  0.62463484  0.72168293  0.93179379     0.75800
C382        C  0.66974064  0.67669837  0.96685851     0.78100
Cd383      Cd  0.62746509  0.68118679  0.95518171     1.37500
O384        O  0.61186432  0.68628272  0.00598574    -0.56800
O385        O  0.65877203  0.68997841  0.97941078    -0.55700
C386        C  0.60181165  0.66068228  0.91234928     0.78100
O387        O  0.66114894  0.66513836  0.94758315    -0.58000
O388        O  0.61641776  0.65542043  0.99203816    -0.56500
O389        O  0.63449785  0.70806104  0.91784177    -0.56500
O390        O  0.59603203  0.67501090  0.92944196    -0.55600
O391        O  0.44524960  0.61430505  0.73066532    -0.56800
C392        C  0.47689232  0.60765839  0.80892812     0.75800
O393        O  0.41104163  0.60983258  0.82316077    -0.58000
C394        C  0.42702871  0.61578245  0.72172645     0.75800
C395        C  0.43271426  0.55843220  0.77467482     0.78100
Cd396      Cd  0.43703659  0.60179235  0.78265265     1.37500
O397        O  0.47102047  0.61680859  0.78492966    -0.56800
O398        O  0.44529830  0.56904196  0.75974388    -0.55700
C399        C  0.41458845  0.62869242  0.82253885     0.78100
O400        O  0.42188209  0.56786151  0.79406169    -0.58000
O401        O  0.46432556  0.59536047  0.82058535    -0.56500
O402        O  0.41352682  0.61053018  0.74088046    -0.56500
O403        O  0.42743591  0.63462593  0.80293352    -0.55600
O404        O  0.53228773  0.85925960  0.74357381    -0.56800
C405        C  0.50206268  0.86819618  0.82049607     0.75800
O406        O  0.56654042  0.86331703  0.83762199    -0.58000
C407        C  0.55014515  0.85650010  0.73382621     0.75800
C408        C  0.55409632  0.91327002  0.78866960     0.78100
Cd409      Cd  0.54248686  0.87147572  0.79510539     1.37500
O410        O  0.50784385  0.85826957  0.79729063    -0.56800
O411        O  0.53761313  0.90644328  0.77790610    -0.55700
C412        C  0.56395738  0.84440037  0.83561872     0.78100
O413        O  0.56511334  0.90079479  0.80315235    -0.58000
O414        O  0.51485189  0.88054606  0.83144853    -0.56500
O415        O  0.56433554  0.86115298  0.75208963    -0.56500
O416        O  0.55157294  0.83842413  0.81541968    -0.55600
C417        C  0.61368494  0.77804987  0.92566753    -0.04500
C418        C  0.60763976  0.77946455  0.89464061     0.09700
C419        C  0.61026370  0.76281180  0.87482685    -0.01900
C420        C  0.61749479  0.74428864  0.88650100    -0.00100
C421        C  0.62154703  0.74216021  0.91837120    -0.03800
C422        C  0.62057093  0.75941603  0.93761461     0.03300
C423        C  0.59647081  0.79763966  0.88336281     0.10100
C424        C  0.60445412  0.76446907  0.84268230     0.36000
C425        C  0.62669740  0.75811406  0.96964049     0.39400
C426        C  0.60702136  0.81476641  0.87249464    -0.04100
C427        C  0.59626268  0.83093607  0.85887012     0.03000
C428        C  0.57496550  0.82963278  0.85519520    -0.03700
C429        C  0.56437875  0.81293229  0.86774157     0.00000
C430        C  0.57510670  0.79707028  0.88196692    -0.02500
C431        C  0.62898507  0.81531197  0.87422916     0.36700
C432        C  0.54238927  0.81204631  0.86611331     0.40400
C433        C  0.60725383  0.84839025  0.84737067     0.39500
C434        C  0.56422856  0.77982032  0.89449889     0.36400
C435        C  0.61210737  0.79562978  0.94545727     0.37100
C436        C  0.61959329  0.72720284  0.86580182     0.40300
N437        N  0.61603550  0.86237136  0.83837438    -0.37700
N438        N  0.64651683  0.81566480  0.87556461    -0.39300
N439        N  0.52486527  0.81133683  0.86480617    -0.37100
N440        N  0.55562435  0.76603132  0.90451521    -0.39400
N441        N  0.59968343  0.76571371  0.81709471    -0.39200
N442        N  0.62136311  0.71361492  0.84927177    -0.36800
N443        N  0.63162510  0.75725183  0.99520147    -0.37900
N444        N  0.61090281  0.80972269  0.96109834    -0.39600
C445        C  0.55485657  0.65301870  0.86393105    -0.04500
C446        C  0.55357599  0.63175858  0.86282096     0.09700
C447        C  0.56952092  0.61984406  0.87472488    -0.01900
C448        C  0.58629010  0.62920783  0.88915464    -0.00100
C449        C  0.58701261  0.65055960  0.89172316    -0.03800
C450        C  0.57169487  0.66237782  0.87764609     0.03300
C451        C  0.53512532  0.62229780  0.84906830     0.10100
C452        C  0.56831900  0.59796890  0.87291367     0.36000
C453        C  0.57323740  0.68430008  0.87708652     0.39400
C454        C  0.53276275  0.62209594  0.81687082    -0.04100
C455        C  0.51389485  0.61705930  0.80369771     0.03000
C456        C  0.49730111  0.61146995  0.82275120    -0.03700
C457        C  0.50019856  0.61049650  0.85512601     0.00000
C458        C  0.51894599  0.61623386  0.86818276    -0.02500
C459        C  0.54970476  0.62785189  0.79735717     0.36700
C460        C  0.48369456  0.60466488  0.87542211     0.40400
C461        C  0.51169465  0.61791359  0.77048811     0.39500
C462        C  0.52132439  0.61699250  0.90138617     0.36400
C463        C  0.53837967  0.66529330  0.85193684     0.37100
C464        C  0.60224227  0.61678864  0.90230102     0.40300
N465        N  0.50995139  0.61881013  0.74398425    -0.37700
N466        N  0.56327641  0.63247748  0.78200073    -0.39300
N467        N  0.47064487  0.59995230  0.89173980    -0.37100
N468        N  0.52326522  0.61775052  0.92786079    -0.39400
N469        N  0.56733208  0.58051579  0.87157506    -0.39200
N470        N  0.61495286  0.60674238  0.91257803    -0.36800
N471        N  0.57448061  0.70175793  0.87661193    -0.37900
N472        N  0.52515920  0.67503059  0.84251708    -0.39600
C473        C  0.37223444  0.69117996  0.92722648    -0.04500
C474        C  0.37713845  0.69209325  0.89561887     0.09700
C475        C  0.37530199  0.71062625  0.87967885    -0.01900
C476        C  0.36948570  0.72831141  0.89541070    -0.00100
C477        C  0.36519501  0.72767056  0.92738475    -0.03800
C478        C  0.36624356  0.70887321  0.94310261     0.03300
C479        C  0.38666032  0.67436026  0.87966803     0.10100
C480        C  0.38056805  0.71170829  0.84727306     0.36000
C481        C  0.36137540  0.70767721  0.97561676     0.39400
C482        C  0.37474896  0.65833968  0.86802009    -0.04100
C483        C  0.38382322  0.64291376  0.85011190     0.03000
C484        C  0.40489950  0.64342375  0.84392850    -0.03700
C485        C  0.41690312  0.65888667  0.85718337     0.00000
C486        C  0.40780147  0.67438154  0.87455308    -0.02500
C487        C  0.35307794  0.65808296  0.87370144     0.36700
C488        C  0.43881536  0.65864208  0.85359774     0.40400
C489        C  0.37134232  0.62705578  0.83703344     0.39500
C490        C  0.42013929  0.69078739  0.88646906     0.36400
C491        C  0.37416453  0.67214979  0.94367293     0.37100
C492        C  0.36951433  0.74744858  0.87886864     0.40300
N493        N  0.36142510  0.61435193  0.82656332    -0.37700
N494        N  0.33578943  0.65782529  0.87831112    -0.39300
N495        N  0.45626851  0.65828649  0.85079030    -0.37100
N496        N  0.42986885  0.70402941  0.89571190    -0.39400
N497        N  0.38498913  0.71264773  0.82151098    -0.39200
N498        N  0.36965010  0.76271438  0.86579455    -0.36800
N499        N  0.35757394  0.70667510  0.00161446    -0.37900
N500        N  0.37572373  0.65696942  0.95676398    -0.39600
C501        C  0.43098971  0.81958194  0.88460138    -0.04500
C502        C  0.42813175  0.84019487  0.87746220     0.09700
C503        C  0.40991471  0.84986980  0.88576485    -0.01900
C504        C  0.39501051  0.83927103  0.90278970    -0.00100
C505        C  0.39804353  0.81866933  0.91078111    -0.03800
C506        C  0.41590931  0.80875802  0.90066529     0.03300
C507        C  0.44505137  0.85163411  0.86249106     0.10100
C508        C  0.40674705  0.87084677  0.87718353     0.36000
C509        C  0.41878164  0.78727362  0.90616636     0.39400
C510        C  0.44681459  0.85196648  0.83020695    -0.04100
C511        C  0.46507489  0.85834141  0.81626242     0.03000
C512        C  0.48170914  0.86467683  0.83469326    -0.03700
C513        C  0.47921015  0.86572988  0.86709973     0.00000
C514        C  0.46089110  0.85935031  0.88082060    -0.02500
C515        C  0.43000653  0.84499417  0.81142982     0.36700
C516        C  0.49597478  0.87158860  0.88684503     0.40400
C517        C  0.46680388  0.85767304  0.78297573     0.39500
C518        C  0.45863298  0.85965924  0.91405168     0.36400
C519        C  0.44977587  0.80965805  0.87585878     0.37100
C520        C  0.37716450  0.84997042  0.91344169     0.40300
N521        N  0.46816411  0.85689169  0.75641867    -0.37700
N522        N  0.41654350  0.83950842  0.79653133    -0.39300
N523        N  0.50932078  0.87607131  0.90273687    -0.37100
N524        N  0.45673438  0.85986178  0.94055078    -0.39400
N525        N  0.40424855  0.88754597  0.87010155    -0.39200
N526        N  0.36298741  0.85860478  0.92205585    -0.36800
N527        N  0.42118249  0.77014132  0.91030217    -0.37900
N528        N  0.46487080  0.80196714  0.86891575    -0.39600
C529        C  0.90104625  0.20543276  0.43719967    -0.04500
C530        C  0.88966744  0.19462398  0.41525818     0.09700
C531        C  0.86979529  0.20093088  0.40797529    -0.01900
C532        C  0.86181599  0.21879362  0.42101075    -0.00100
C533        C  0.87352843  0.23023975  0.44210399    -0.03800
C534        C  0.89302152  0.22305770  0.45076676     0.03300
C535        C  0.89960711  0.17815550  0.39712151     0.10100
C536        C  0.85782683  0.18921754  0.38636952     0.36000
C537        C  0.90557167  0.23440846  0.47206631     0.39400
C538        C  0.90327144  0.15897872  0.41034498    -0.04100
C539        C  0.91442687  0.14427443  0.39393998     0.03000
C540        C  0.92126747  0.14839930  0.36365756    -0.03700
C541        C  0.91676807  0.16741915  0.35007115     0.00000
C542        C  0.90643775  0.18232311  0.36701656    -0.02500
C543        C  0.89571447  0.15452299  0.44096523     0.36700
C544        C  0.92226735  0.17166320  0.31832881     0.40400
C545        C  0.91967018  0.12534594  0.40893332     0.39500
C546        C  0.90317148  0.20222653  0.35364159     0.36400
C547        C  0.92150753  0.19890576  0.44466909     0.37100
C548        C  0.84158952  0.22534755  0.41237868     0.40300
N549        N  0.92396895  0.11032884  0.42101302    -0.37700
N550        N  0.88963088  0.15097457  0.46539528    -0.39300
N551        N  0.92658511  0.17507195  0.29299349    -0.37100
N552        N  0.90058607  0.21810233  0.34308392    -0.39400
N553        N  0.84838914  0.17978416  0.36909812    -0.39200
N554        N  0.82548414  0.23049724  0.40521905    -0.36800
N555        N  0.91569400  0.24338274  0.48901438    -0.37900
N556        N  0.93779399  0.19361593  0.45051389    -0.39600
C557        C  0.93619431  0.33542076  0.41374865    -0.04500
C558        C  0.93335180  0.33933873  0.38215181     0.09700
C559        C  0.91381345  0.33747731  0.36917391    -0.01900
C560        C  0.89744732  0.33031805  0.38727396    -0.00100
C561        C  0.90065793  0.32479497  0.41848162    -0.03800
C562        C  0.91993208  0.32848101  0.43193228     0.03300
C563        C  0.95135703  0.34461248  0.36267445     0.10100
C564        C  0.91071312  0.34258234  0.33702122     0.36000
C565        C  0.92315103  0.32546971  0.46470289     0.39400
C566        C  0.96126731  0.32936658  0.34572083    -0.04100
C567        C  0.98005109  0.33336271  0.33130582     0.03000
C568        C  0.98903957  0.35282921  0.33348639    -0.03700
C569        C  0.97834440  0.36839946  0.34899327     0.00000
C570        C  0.95978237  0.36418763  0.36388215    -0.02500
C571        C  0.95249628  0.30924811  0.34427021     0.36700
C572        C  0.98613615  0.38892714  0.34933054     0.40400
C573        C  0.99040270  0.31701916  0.31552052     0.39500
C574        C  0.94964318  0.37982668  0.38149561     0.36400
C575        C  0.95612757  0.33808290  0.42740590     0.37100
C576        C  0.87756482  0.32817213  0.37335950     0.40300
N577        N  0.99856951  0.30392848  0.30294159    -0.37700
N578        N  0.94547687  0.29321687  0.34311052    -0.39300
N579        N  0.99225379  0.40534130  0.34956122    -0.37100
N580        N  0.94164325  0.39221661  0.39582559    -0.39400
N581        N  0.90826006  0.34666770  0.31135778    -0.39200
N582        N  0.86168613  0.32663894  0.36221661    -0.36800
N583        N  0.92582673  0.32313893  0.49081495    -0.37900
N584        N  0.97204435  0.34028145  0.43814034    -0.39600
C585        C  0.12617946  0.28601851  0.44613656    -0.04500
C586        C  0.12038429  0.28689079  0.41491002     0.09700
C587        C  0.12289680  0.26972332  0.39605579    -0.01900
C588        C  0.13012383  0.25145423  0.40864535    -0.00100
C589        C  0.13426858  0.24997577  0.44060297    -0.03800
C590        C  0.13304976  0.26759772  0.45902809     0.03300
C591        C  0.10982660  0.30504107  0.40191972     0.10100
C592        C  0.11691258  0.27056001  0.36388263     0.36000
C593        C  0.13907171  0.26689232  0.49113916     0.39400
C594        C  0.11989793  0.31778916  0.38081700    -0.04100
C595        C  0.10865940  0.33111560  0.36188975     0.03000
C596        C  0.08724835  0.33201856  0.36454637    -0.03700
C597        C  0.07751696  0.32067270  0.38798002     0.00000
C598        C  0.08878755  0.30728191  0.40660821    -0.02500
C599        C  0.14178172  0.31650651  0.37785156     0.36700
C600        C  0.05577487  0.32240157  0.39262940     0.40400
C601        C  0.11903716  0.34254402  0.33811250     0.39500
C602        C  0.07862629  0.29515414  0.42983933     0.36400
C603        C  0.12454717  0.30396845  0.46509038     0.37100
C604        C  0.13219577  0.23398051  0.38868388     0.40300
N605        N  0.12739873  0.35152743  0.31903639    -0.37700
N606        N  0.15924892  0.31548451  0.37572098    -0.39300
N607        N  0.03843620  0.32369204  0.39628375    -0.37100
N608        N  0.07060796  0.28555955  0.44855833    -0.39400
N609        N  0.11204611  0.27125133  0.33829360    -0.39200
N610        N  0.13394405  0.22013279  0.37264735    -0.36800
N611        N  0.14395435  0.26638114  0.51673705    -0.37900
N612        N  0.12322802  0.31829849  0.48020626    -0.39600
C613        C  0.05244397  0.11788018  0.33694446    -0.04500
C614        C  0.05459526  0.12252766  0.36841280     0.09700
C615        C  0.03796985  0.12003049  0.38847995    -0.01900
C616        C  0.01874643  0.11472544  0.37675446    -0.00100
C617        C  0.01614788  0.11136518  0.34477348    -0.03800
C618        C  0.03332263  0.11215216  0.32515816     0.03300
C619        C  0.07282454  0.13373219  0.37972814     0.10100
C620        C  0.04047159  0.12432675  0.42104212     0.36000
C621        C  0.03132321  0.10737050  0.29270428     0.39400
C622        C  0.07242886  0.15505088  0.37921371    -0.04100
C623        C  0.08722496  0.16621078  0.39525407     0.03000
C624        C  0.10270211  0.15608880  0.41183888    -0.03700
C625        C  0.10394200  0.13470806  0.41035441     0.00000
C626        C  0.08894775  0.12356629  0.39443565    -0.02500
C627        C  0.05606111  0.16544718  0.36332551     0.36700
C628        C  0.11979259  0.12403815  0.42692678     0.40400
C629        C  0.08623409  0.18813884  0.39488923     0.39500
C630        C  0.08956557  0.10164851  0.39431766     0.36400
C631        C  0.06972022  0.11992571  0.31651841     0.37100
C632        C  0.00144239  0.11455274  0.39739455     0.40300
N633        N  0.08520970  0.20561732  0.39443807    -0.37700
N634        N  0.04289043  0.17350600  0.35064028    -0.39300
N635        N  0.13246232  0.11559686  0.44020678    -0.37100
N636        N  0.09012012  0.08414782  0.39428560    -0.39400
N637        N  0.04268842  0.12784405  0.44691613    -0.39200
N638        N  0.98770610  0.11462399  0.41399459    -0.36800
N639        N  0.02967757  0.10357153  0.26682366    -0.37900
N640        N  0.08348826  0.12157748  0.30017100    -0.39600
C641        C  0.76666770  0.66278809  0.00691182    -0.04500
C642        C  0.75484390  0.67974303  0.99891298     0.09700
C643        C  0.76345880  0.69924616  0.99963022    -0.01900
C644        C  0.78379726  0.70187002  0.00888864    -0.00100
C645        C  0.79581151  0.68487831  0.01694729    -0.03800
C646        C  0.78717472  0.66527694  0.01538905     0.03300
C647        C  0.73300054  0.67719597  0.99078369     0.10100
C648        C  0.75125516  0.71663437  0.99093770     0.36000
C649        C  0.79957504  0.64751620  0.02096138     0.39400
C650        C  0.71808613  0.67997180  0.01359462    -0.04100
C651        C  0.69743510  0.67829984  0.00599435     0.03000
C652        C  0.69149611  0.67509296  0.97506081    -0.03700
C653        C  0.70646979  0.67192841  0.95225994     0.00000
C654        C  0.72720377  0.67251935  0.96033306    -0.02500
C655        C  0.72400459  0.68503891  0.04481698     0.36700
C656        C  0.70069115  0.66924850  0.92028594     0.40400
C657        C  0.68228841  0.67956961  0.03021873     0.39500
C658        C  0.74263348  0.66866849  0.93729086     0.36400
C659        C  0.75759905  0.64279420  0.00649437     0.37100
C660        C  0.79208163  0.72215209  0.01078150     0.40300
N661        N  0.67009345  0.68047139  0.04934148    -0.37700
N662        N  0.72865847  0.68929575  0.06966421    -0.39300
N663        N  0.69609026  0.66727214  0.89474483    -0.37100
N664        N  0.75498665  0.66542036  0.91902998    -0.39400
N665        N  0.74146611  0.73043063  0.98394162    -0.39200
N666        N  0.79858178  0.73839254  0.01218902    -0.36800
N667        N  0.80947467  0.63331522  0.02510168    -0.37900
N668        N  0.75022057  0.62690315  0.00619002    -0.39600
C669        C  0.94016217  0.01808596  0.24219854    -0.04500
C670        C  0.93723407  0.00255111  0.26402599     0.09700
C671        C  0.93524380  0.00749209  0.29552917    -0.01900
C672        C  0.93726542  0.02775117  0.30533345    -0.00100
C673        C  0.94152428  0.04314650  0.28368358    -0.03800
C674        C  0.94218247  0.03832441  0.25192200     0.03300
C675        C  0.93680378  0.98087019  0.25406537     0.10100
C676        C  0.93150149  0.99162205  0.31791050     0.36000
C677        C  0.94433091  0.05428910  0.22912002     0.39400
C678        C  0.95512992  0.97011123  0.25051470    -0.04100
C679        C  0.95480991  0.94918449  0.24426694     0.03000
C680        C  0.93610460  0.93889589  0.24064418    -0.03700
C681        C  0.91776664  0.95000284  0.24244847     0.00000
C682        C  0.91815990  0.97089422  0.24926822    -0.02500
C683        C  0.97437391  0.98059852  0.25334341     0.36700
C684        C  0.89840738  0.93983215  0.23901138     0.40400
C685        C  0.97384791  0.93827238  0.24163143     0.39500
C686        C  0.89935887  0.98216669  0.25173678     0.36400
C687        C  0.94119090  0.01319136  0.20969435     0.37100
C688        C  0.93563443  0.03260426  0.33780040     0.40300
N689        N  0.98898158  0.92948391  0.23978860    -0.37700
N690        N  0.98978337  0.98890152  0.25526000    -0.39300
N691        N  0.88292714  0.93175160  0.23633567    -0.37100
N692        N  0.88438163  0.99120180  0.25367805    -0.39400
N693        N  0.92846512  0.97895805  0.33577905    -0.39200
N694        N  0.93425645  0.03658603  0.36364471    -0.36800
N695        N  0.94592998  0.06711672  0.21107580    -0.37900
N696        N  0.94199255  0.00932058  0.18375823    -0.39600
C697        C  0.88706035  0.82130972  0.12596942    -0.04500
C698        C  0.88003331  0.80316945  0.13939675     0.09700
C699        C  0.87996801  0.80104678  0.17169768    -0.01900
C700        C  0.88857803  0.81621827  0.19037228    -0.00100
C701        C  0.89738820  0.83362872  0.17676147    -0.03800
C702        C  0.89579722  0.83649232  0.14454691     0.03300
C703        C  0.87561351  0.78524464  0.11951796     0.10100
C704        C  0.87179570  0.78280450  0.18561797     0.36000
C705        C  0.90459166  0.85424943  0.13007433     0.39400
C706        C  0.89181082  0.77278624  0.10998255    -0.04100
C707        C  0.88800819  0.75531776  0.09238276     0.03000
C708        C  0.86792032  0.75013081  0.08420802    -0.03700
C709        C  0.85173341  0.76282463  0.09322171     0.00000
C710        C  0.85557588  0.78035711  0.11086937    -0.02500
C711        C  0.91243523  0.77775662  0.11897588     0.36700
C712        C  0.83117404  0.75807336  0.08381966     0.40400
C713        C  0.90472296  0.74216858  0.08395647     0.39500
C714        C  0.83898515  0.79329511  0.12035863     0.36400
C715        C  0.88614601  0.82385246  0.09283217     0.37100
C716        C  0.88867921  0.81369801  0.22358033     0.40300
N717        N  0.91805410  0.73164081  0.07732477    -0.37700
N718        N  0.92883069  0.78179023  0.12623034    -0.39300
N719        N  0.81476313  0.75437777  0.07625018    -0.37100
N720        N  0.82573575  0.80362990  0.12798401    -0.39400
N721        N  0.86524223  0.76828400  0.19671800    -0.39200
N722        N  0.88881269  0.81167721  0.25007921    -0.36800
N723        N  0.91168718  0.86834394  0.11848498    -0.37900
N724        N  0.88537317  0.82585494  0.06636722    -0.39600
C725        C  0.04606160  0.50776223  0.28743571    -0.04500
C726        C  0.04889920  0.49389256  0.26326203     0.09700
C727        C  0.05004481  0.50085407  0.23257923    -0.01900
C728        C  0.04755592  0.52158581  0.22595304    -0.00100
C729        C  0.04446126  0.53552856  0.25011723    -0.03800
C730        C  0.04393224  0.52854273  0.28096604     0.03300
C731        C  0.04948940  0.47175316  0.26993442     0.10100
C732        C  0.05379413  0.48663178  0.20785632     0.36000
C733        C  0.04165054  0.54270287  0.30620759     0.39400
C734        C  0.03132957  0.46054211  0.26977410    -0.04100
C735        C  0.03172668  0.43949823  0.27496218     0.03000
C736        C  0.05041300  0.42948521  0.28054422    -0.03700
C737        C  0.06859360  0.44092961  0.28108733     0.00000
C738        C  0.06804419  0.46204622  0.27629459    -0.02500
C739        C  0.01213734  0.47087783  0.26502436     0.36700
C740        C  0.08802982  0.43097982  0.28512167     0.40400
C741        C  0.01274725  0.42837422  0.27521262     0.39500
C742        C  0.08647281  0.47394667  0.27847241     0.36400
C743        C  0.04538228  0.50055710  0.31900901     0.37100
C744        C  0.04720811  0.52838821  0.19414959     0.40300
N745        N  0.99754274  0.41960006  0.27526839    -0.37700
N746        N  0.99689685  0.47925308  0.26150089    -0.39300
N747        N  0.10358646  0.42310590  0.28808722    -0.37100
N748        N  0.10107590  0.48357719  0.28057401    -0.39400
N749        N  0.05695066  0.47532658  0.18811814    -0.39200
N750        N  0.04677620  0.53384153  0.16881939    -0.36800
N751        N  0.03980231  0.55393032  0.32643051    -0.37900
N752        N  0.04490347  0.49475163  0.34415278    -0.39600
C753        C  0.95209845  0.60866901  0.15771069    -0.04500
C754        C  0.94610761  0.62914760  0.15857461     0.09700
C755        C  0.95700593  0.64290522  0.17706526    -0.01900
C756        C  0.97407669  0.63636096  0.19403155    -0.00100
C757        C  0.98081362  0.61605761  0.19190012    -0.03800
C758        C  0.96951628  0.60217141  0.17395758     0.03300
C759        C  0.92970438  0.63675501  0.13754570     0.10100
C760        C  0.95120338  0.66407126  0.17740716     0.36000
C761        C  0.97572973  0.58115841  0.17220683     0.39400
C762        C  0.90989194  0.64037564  0.14859308    -0.04100
C763        C  0.89506772  0.64910670  0.12907024     0.03000
C764        C  0.90012894  0.65474970  0.09854228    -0.03700
C765        C  0.91977327  0.65015784  0.08718897     0.00000
C766        C  0.93442079  0.64124519  0.10661992    -0.02500
C767        C  0.90498307  0.63568048  0.18034114     0.36700
C768        C  0.92500097  0.65441183  0.05536126     0.40400
C769        C  0.87488563  0.65302609  0.14096647     0.39500
C770        C  0.95467413  0.63718347  0.09502318     0.36400
C771        C  0.94051366  0.59440173  0.13946868     0.37100
C772        C  0.98533113  0.65091734  0.21227901     0.40300
N773        N  0.85876565  0.65607326  0.15039038    -0.37700
N774        N  0.90104606  0.63206025  0.20574403    -0.39300
N775        N  0.92923532  0.65781265  0.02998923    -0.37100
N776        N  0.97082714  0.63390778  0.08590768    -0.39400
N777        N  0.94664012  0.68097792  0.17751437    -0.39200
N778        N  0.99430162  0.66249131  0.22688704    -0.36800
N779        N  0.98074195  0.56440390  0.17073165    -0.37900
N780        N  0.93120260  0.58307519  0.12490678    -0.39600
C781        C  0.21375821  0.79916700  0.99963904    -0.04500
C782        C  0.22947718  0.79373223  0.02006653     0.09700
C783        C  0.22479500  0.78826999  0.05074088    -0.01900
C784        C  0.20445893  0.78811377  0.06086465    -0.00100
C785        C  0.18867534  0.79277432  0.04006350    -0.03800
C786        C  0.19341041  0.79847773  0.00946226     0.03300
C787        C  0.25099221  0.79337928  0.00915563     0.10100
C788        C  0.24088446  0.78212705  0.07153297     0.36000
C789        C  0.17733195  0.80373815  0.98803866     0.39400
C790        C  0.26462428  0.80869193  0.01835514    -0.04100
C791        C  0.28517962  0.80773894  0.00950423     0.03000
C792        C  0.29206062  0.79173439  0.99076443    -0.03700
C793        C  0.27837751  0.77660335  0.98112886     0.00000
C794        C  0.25787653  0.77742860  0.99024638    -0.02500
C795        C  0.25747245  0.82534852  0.03713188     0.36700
C796        C  0.28546146  0.76014197  0.96186228     0.40400
C797        C  0.29950228  0.82250373  0.02120833     0.39500
C798        C  0.24390051  0.76177101  0.98041917     0.36400
C799        C  0.21854250  0.80524945  0.96833789     0.37100
C800        C  0.19975936  0.78220525  0.09226627     0.40300
N801        N  0.31102812  0.83411270  0.03078830    -0.37700
N802        N  0.25170214  0.83860924  0.05210168    -0.39300
N803        N  0.29122584  0.74704636  0.94654913    -0.37100
N804        N  0.23272844  0.74933626  0.97239733    -0.39400
N805        N  0.25375444  0.77717096  0.08805616    -0.39200
N806        N  0.19602148  0.77752637  0.11731783    -0.36800
N807        N  0.16448111  0.80781931  0.97093409    -0.37900
N808        N  0.22235532  0.81003121  0.94335865    -0.39600
C809        C  0.09122967  0.70388193  0.12862503    -0.04500
C810        C  0.10635050  0.68923764  0.13425801     0.09700
C811        C  0.12654419  0.69295700  0.12507835    -0.01900
C812        C  0.13157038  0.71129479  0.11010532    -0.00100
C813        C  0.11624357  0.72563745  0.10356445    -0.03800
C814        C  0.09606549  0.72182821  0.11285351     0.03300
C815        C  0.10054312  0.66999870  0.15002110     0.10100
C816        C  0.14203448  0.67786130  0.13095599     0.36000
C817        C  0.08027826  0.73667562  0.10695661     0.39400
C818        C  0.09036385  0.65475616  0.13335897    -0.04100
C819        C  0.08062404  0.63879294  0.14910474     0.03000
C820        C  0.08101827  0.63810026  0.18164044    -0.03700
C821        C  0.09302907  0.65224002  0.19797966     0.00000
C822        C  0.10255840  0.66827658  0.18221102    -0.02500
C823        C  0.08889523  0.65626425  0.10010754     0.36700
C824        C  0.09540256  0.65045627  0.23111197     0.40400
C825        C  0.06906221  0.62399133  0.13181308     0.39500
C826        C  0.11342187  0.68370069  0.19929486     0.36400
C827        C  0.07070412  0.70062344  0.13967729     0.37100
C828        C  0.15232425  0.71513458  0.10070977     0.40300
N829        N  0.05987440  0.61220701  0.11794220    -0.37700
N830        N  0.08767836  0.65756061  0.07358363    -0.39300
N831        N  0.09734701  0.64900441  0.25752766    -0.37100
N832        N  0.12202202  0.69601568  0.21296117    -0.39400
N833        N  0.15434984  0.66577337  0.13567863    -0.39200
N834        N  0.16890831  0.71816156  0.09322853    -0.36800
N835        N  0.06773264  0.74850505  0.10211144    -0.37900
N836        N  0.05437153  0.69808298  0.14867757    -0.39600
C837        C  0.06989274  0.83536554  0.16389746    -0.04500
C838        C  0.05035898  0.83709504  0.15086171     0.09700
C839        C  0.04672528  0.82997811  0.12083871    -0.01900
C840        C  0.06248845  0.82106873  0.10382924    -0.00100
C841        C  0.08195806  0.81849171  0.11719409    -0.03800
C842        C  0.08566571  0.82596083  0.14718056     0.03300
C843        C  0.03291258  0.84474387  0.16935579     0.10100
C844        C  0.02638850  0.83097624  0.10799095     0.36000
C845        C  0.10526691  0.82290455  0.16165021     0.39400
C846        C  0.02562936  0.86457832  0.16483844    -0.04100
C847        C  0.00718013  0.87064459  0.17841060     0.03000
C848        C  0.99589465  0.85684230  0.19657178    -0.03700
C849        C  0.00367040  0.83716216  0.20192205     0.00000
C850        C  0.02210407  0.83118047  0.18829795    -0.02500
C851        C  0.03682585  0.87848377  0.14533547     0.36700
C852        C  0.99215783  0.82251234  0.21969179     0.40400
C853        C  0.99987469  0.89112222  0.17362012     0.39500
C854        C  0.02949651  0.81065057  0.19231654     0.36400
C855        C  0.07345354  0.84254385  0.19494485     0.37100
C856        C  0.05853257  0.81464154  0.07244330     0.40300
N857        N  0.99401927  0.90743315  0.16972910    -0.37700
N858        N  0.04572549  0.88955444  0.12967432    -0.39300
N859        N  0.98304260  0.81069729  0.23372430    -0.37100
N860        N  0.03548717  0.79430601  0.19524228    -0.39400
N861        N  0.01012633  0.83162940  0.09801889    -0.39200
N862        N  0.05532152  0.80950708  0.04743496    -0.36800
N863        N  0.12084742  0.82038056  0.17331001    -0.37900
N864        N  0.07624706  0.84821000  0.21979600    -0.39600
C865        C  0.27548667  0.15504432  0.53721311    -0.04500
C866        C  0.26546353  0.17374836  0.53424186     0.09700
C867        C  0.27574953  0.19183399  0.54120596    -0.01900
C868        C  0.29637921  0.19134761  0.54965107    -0.00100
C869        C  0.30688550  0.17265011  0.55127257    -0.03800
C870        C  0.29614463  0.15443421  0.54570524     0.03300
C871        C  0.24398778  0.17457261  0.52351261     0.10100
C872        C  0.26495221  0.21095729  0.53976491     0.36000
C873        C  0.30638358  0.13505054  0.54744260     0.39400
C874        C  0.22807565  0.17394490  0.54507139    -0.04100
C875        C  0.20784850  0.17624177  0.53521332     0.03000
C876        C  0.20345903  0.17962922  0.50364092    -0.03700
C877        C  0.21950874  0.17982370  0.48199327     0.00000
C878        C  0.23967487  0.17693541  0.49191603    -0.02500
C879        C  0.23263719  0.17091614  0.57744924     0.36700
C880        C  0.21552502  0.18401361  0.44974678     0.40400
C881        C  0.19159915  0.17458153  0.55763474     0.39500
C882        C  0.25609529  0.17639573  0.46969318     0.36400
C883        C  0.26445164  0.13647075  0.53126402     0.37100
C884        C  0.30656563  0.21015087  0.55727168     0.40300
N885        N  0.17870527  0.17317720  0.57559925    -0.37700
N886        N  0.23640120  0.16845861  0.60321696    -0.39300
N887        N  0.21246060  0.18749264  0.42402895    -0.37100
N888        N  0.26924707  0.17574994  0.45207280    -0.39400
N889        N  0.25620007  0.22611962  0.53872228    -0.39200
N890        N  0.31458645  0.22520247  0.56334485    -0.36800
N891        N  0.31443101  0.11951649  0.54883871    -0.37900
N892        N  0.25548370  0.12173980  0.52658884    -0.39600
C893        C  0.45477148  0.46281032  0.75873538    -0.04500
C894        C  0.43525778  0.47129739  0.75566763     0.09700
C895        C  0.41851972  0.45860766  0.74966489    -0.01900
C896        C  0.42120928  0.43743894  0.74741634    -0.00100
C897        C  0.44078657  0.42882955  0.75069110    -0.03800
C898        C  0.45757478  0.44172292  0.75620213     0.03300
C899        C  0.43243027  0.49361936  0.75997611     0.10100
C900        C  0.39849763  0.46738687  0.74608233     0.36000
C901        C  0.47789820  0.43345100  0.75871752     0.39400
C902        C  0.43464741  0.50696999  0.73486537    -0.04100
C903        C  0.43381898  0.52809300  0.73948882     0.03000
C904        C  0.43113184  0.53611117  0.76950540    -0.03700
C905        C  0.42812104  0.52258664  0.79446607     0.00000
C906        C  0.42884739  0.50145472  0.78966046    -0.02500
C907        C  0.43832661  0.49891256  0.70432899     0.36700
C908        C  0.42515569  0.53024086  0.82540350     0.40400
C909        C  0.43535948  0.54152465  0.71310055     0.39500
C910        C  0.42666124  0.48762718  0.81543991     0.36400
C911        C  0.47200092  0.47590356  0.76465990     0.37100
C912        C  0.40363476  0.42451388  0.74325325     0.40300
N913        N  0.43653000  0.55226275  0.69207635    -0.37700
N914        N  0.44135186  0.49248522  0.67999875    -0.39300
N915        N  0.42274073  0.53624021  0.85014415    -0.37100
N916        N  0.42502586  0.47644022  0.83583300    -0.39400
N917        N  0.38253146  0.47441491  0.74313355    -0.39200
N918        N  0.38960278  0.41419234  0.74010878    -0.36800
N919        N  0.49413362  0.42692401  0.76081246    -0.37900
N920        N  0.48567944  0.48642644  0.76938200    -0.39600
C921        C  0.42886434  0.29361218  0.64362010    -0.04500
C922        C  0.40936733  0.28556299  0.64902153     0.09700
C923        C  0.39636505  0.29497422  0.67044952    -0.01900
C924        C  0.40326850  0.31162371  0.68784432    -0.00100
C925        C  0.42316937  0.31904202  0.68358961    -0.03800
C926        C  0.43576151  0.31029286  0.66088815     0.03300
C927        C  0.40302239  0.26624423  0.63397343     0.10100
C928        C  0.37606180  0.28707487  0.67510455     0.36000
C929        C  0.45588982  0.31846030  0.65542119     0.39400
C930        C  0.40789136  0.24759168  0.64800605    -0.04100
C931        C  0.40125567  0.22927798  0.63479760     0.03000
C932        C  0.38988365  0.22951094  0.60714762    -0.03700
C933        C  0.38519923  0.24824298  0.59297899     0.00000
C934        C  0.39167682  0.26654042  0.60646330    -0.02500
C935        C  0.41986620  0.24732128  0.67605586     0.36700
C936        C  0.37320368  0.24877275  0.56496093     0.40400
C937        C  0.40677752  0.21020339  0.64917147     0.39500
C938        C  0.38657562  0.28572735  0.59220003     0.36400
C939        C  0.44193557  0.28448889  0.62067035     0.37100
C940        C  0.39035805  0.32021499  0.71145670     0.40300
N941        N  0.41119477  0.19499576  0.66062572    -0.37700
N942        N  0.42947949  0.24721250  0.69835602    -0.39300
N943        N  0.36365408  0.24914226  0.54260109    -0.37100
N944        N  0.38247343  0.30104785  0.58085049    -0.39400
N945        N  0.35986682  0.28069645  0.67854319    -0.39200
N946        N  0.38003908  0.32693729  0.73040527    -0.36800
N947        N  0.47190259  0.32509009  0.65119358    -0.37900
N948        N  0.45239208  0.27728279  0.60231680    -0.39600
C949        C  0.58379822  0.00987795  0.77724727    -0.04500
C950        C  0.57486823  0.99584240  0.75696490     0.09700
C951        C  0.56805499  0.00222095  0.72766719    -0.01900
C952        C  0.56851467  0.02288813  0.71976735    -0.00100
C953        C  0.57585518  0.03712606  0.74121358    -0.03800
C954        C  0.58451540  0.03047977  0.76919354     0.03300
C955        C  0.57029646  0.97491651  0.76774999     0.10100
C956        C  0.55948558  0.98761943  0.70642764     0.36000
C957        C  0.59398254  0.04495229  0.78979320     0.39400
C958        C  0.55043197  0.97018940  0.77737387    -0.04100
C959        C  0.54532140  0.95017469  0.78525441     0.03000
C960        C  0.56015689  0.93473135  0.78392782    -0.03700
C961        C  0.58048361  0.93986885  0.77653966     0.00000
C962        C  0.58545088  0.95990690  0.76813484    -0.02500
C963        C  0.53527111  0.98607628  0.77924867     0.36700
C964        C  0.59626147  0.92457932  0.77672870     0.40400
C965        C  0.52487598  0.94567428  0.79559468     0.39500
C966        C  0.60606837  0.96511127  0.75949900     0.36400
C967        C  0.59118880  0.00329751  0.80708104     0.37100
C968        C  0.56014194  0.02957683  0.69055244     0.40300
N969        N  0.50857764  0.94214989  0.80393405    -0.37700
N970        N  0.52331840  0.99885828  0.78077030    -0.39300
N971        N  0.60896663  0.91249463  0.77709939    -0.37100
N972        N  0.62250858  0.96937335  0.75273907    -0.39400
N973        N  0.55256379  0.97597448  0.68956881    -0.39200
N974        N  0.55346826  0.03491454  0.66725179    -0.36800
N975        N  0.60160760  0.05658909  0.80595863    -0.37900
N976        N  0.59706704  0.99808717  0.83092565    -0.39600
C977        C  0.42599004  0.12334409  0.66843187    -0.04500
C978        C  0.44371960  0.11622165  0.65400026     0.09700
C979        C  0.44473589  0.11533645  0.62164032    -0.01900
C980        C  0.42894290  0.12357319  0.60371252    -0.00100
C981        C  0.41203493  0.13279010  0.61817352    -0.03800
C982        C  0.41016155  0.13170395  0.65062532     0.03300
C983        C  0.46240494  0.11249141  0.67252951     0.10100
C984        C  0.46243817  0.10659592  0.60690527     0.36000
C985        C  0.39275561  0.14046457  0.66602382     0.39400
C986        C  0.46861463  0.09266014  0.67986490    -0.04100
C987        C  0.48741507  0.08937763  0.69462190     0.03000
C988        C  0.50010727  0.10597828  0.70184623    -0.03700
C989        C  0.49337188  0.12590564  0.69557641     0.00000
C990        C  0.47457933  0.12910363  0.68106002    -0.02500
C991        C  0.45578551  0.07570139  0.67162970     0.36700
C992        C  0.50625986  0.14318684  0.70219010     0.40400
C993        C  0.49354128  0.06894872  0.70261748     0.39500
C994        C  0.46809449  0.14956834  0.67379883     0.36400
C995        C  0.42452327  0.12276386  0.70174493     0.37100
C996        C  0.43033173  0.12280469  0.57036708     0.40300
N997        N  0.49835769  0.05264517  0.70906205    -0.37700
N998        N  0.44550482  0.06221519  0.66491816    -0.39300
N999        N  0.51657235  0.15693715  0.70742127    -0.37100
N1000       N  0.46299195  0.16589943  0.66808910    -0.39400
N1001       N  0.47654667  0.09947048  0.59535733    -0.39200
N1002       N  0.43151274  0.12217365  0.54379314    -0.36800
N1003       N  0.37891049  0.14745389  0.67845578    -0.37900
N1004       N  0.42346171  0.12216155  0.72832704    -0.39600
C1005       C  0.71745408  0.27584935  0.50540566    -0.04500
C1006       C  0.72567306  0.29447169  0.49552390     0.09700
C1007       C  0.71301206  0.31157652  0.49276599    -0.01900
C1008       C  0.69222901  0.31013985  0.50025479    -0.00100
C1009       C  0.68406994  0.29159639  0.51085458    -0.03800
C1010       C  0.69674978  0.27439967  0.51312077     0.03300
C1011       C  0.74799198  0.29620715  0.49002433     0.10100
C1012       C  0.72145048  0.33068123  0.48243531     0.36000
C1013       C  0.68868088  0.25530518  0.52428760     0.39400
C1014       C  0.75601813  0.29479128  0.45998657    -0.04100
C1015       C  0.77724485  0.29501894  0.45537151     0.03000
C1016       C  0.79053572  0.29594759  0.48093415    -0.03700
C1017       C  0.78234000  0.29780410  0.51096191     0.00000
C1018       C  0.76117972  0.29817573  0.51536727    -0.02500
C1019       C  0.74241211  0.29229658  0.43402802     0.36700
C1020       C  0.79563840  0.29945778  0.53748365     0.40400
C1021       C  0.78531189  0.29332173  0.42441351     0.39500
C1022       C  0.75285088  0.30021489  0.54615837     0.36400
C1023       C  0.73045010  0.25821202  0.50798844     0.37100
C1024       C  0.67912440  0.32754511  0.49586751     0.40300
N1025       N  0.79167979  0.29201217  0.39967652    -0.37700
N1026       N  0.73153641  0.29017489  0.41334574    -0.39300
N1027       N  0.80624209  0.30066113  0.55866347    -0.37100
N1028       N  0.74608994  0.30181512  0.57061014    -0.39400
N1029       N  0.72817540  0.34592477  0.47416337    -0.39200
N1030       N  0.66865842  0.34139720  0.49216395    -0.36800
N1031       N  0.68222802  0.24008822  0.53317618    -0.37900
N1032       N  0.74085130  0.24417331  0.51008138    -0.39600
C1033       C  0.57734742  0.33362585  0.64908005    -0.04500
C1034       C  0.55625090  0.33426313  0.64377218     0.09700
C1035       C  0.54840825  0.32808965  0.61509650    -0.01900
C1036       C  0.56136883  0.31993654  0.59259309    -0.00100
C1037       C  0.58248834  0.31839474  0.59825762    -0.03800
C1038       C  0.59050348  0.32602358  0.62619443     0.03300
C1039       C  0.54191327  0.34074614  0.66849132     0.10100
C1040       C  0.52686035  0.33008366  0.60880482     0.36000
C1041       C  0.61217368  0.32549698  0.63197720     0.39400
C1042       C  0.53823599  0.36147794  0.67369003    -0.04100
C1043       C  0.52212846  0.36749846  0.69300105     0.03000
C1044       C  0.50999285  0.35278040  0.70778567    -0.03700
C1045       C  0.51466941  0.33203444  0.70429263     0.00000
C1046       C  0.53034317  0.32604469  0.68427069    -0.02500
C1047       C  0.55035001  0.37655391  0.65782067     0.36700
C1048       C  0.50227092  0.31672448  0.71922281     0.40400
C1049       C  0.51773810  0.38881833  0.69704206     0.39500
C1050       C  0.53361041  0.30471329  0.67814022     0.36400
C1051       C  0.58543137  0.34041147  0.67834578     0.37100
C1052       C  0.55282541  0.31338297  0.56344919     0.40300
N1053       N  0.51423828  0.40584852  0.70010428    -0.37700
N1054       N  0.56008582  0.38852336  0.64513207    -0.39300
N1055       N  0.49232840  0.30456240  0.73109873    -0.37100
N1056       N  0.53596936  0.28772081  0.67288469    -0.39400
N1057       N  0.50971080  0.33173696  0.60369764    -0.39200
N1058       N  0.54593456  0.30808668  0.54030909    -0.36800
N1059       N  0.62947764  0.32523012  0.63647949    -0.37900
N1060       N  0.59190844  0.34585509  0.70167526    -0.39600
C1061       C  0.60365458  0.20730120  0.62075298    -0.04500
C1062       C  0.60759603  0.18929020  0.60445021     0.09700
C1063       C  0.61595754  0.19021493  0.57464636    -0.01900
C1064       C  0.61956990  0.20914524  0.56059281    -0.00100
C1065       C  0.61472731  0.22724300  0.57628031    -0.03800
C1066       C  0.60721054  0.22623547  0.60678381     0.03300
C1067       C  0.60230445  0.16946528  0.61886663     0.10100
C1068       C  0.62095413  0.17166125  0.55863655     0.36000
C1069       C  0.60251388  0.24460041  0.62360151     0.39400
C1070       C  0.58256998  0.16159141  0.61532206    -0.04100
C1071       C  0.57599944  0.14550396  0.63412891     0.03000
C1072       C  0.58903853  0.13755520  0.65702851    -0.03700
C1073       C  0.60946314  0.14403790  0.65828397     0.00000
C1074       C  0.61609577  0.15991610  0.63901717    -0.02500
C1075       C  0.56877318  0.17062890  0.59319234     0.36700
C1076       C  0.62328356  0.13545580  0.68080045     0.40400
C1077       C  0.55575174  0.13724469  0.63014960     0.39500
C1078       C  0.63686190  0.16703726  0.64071309     0.36400
C1079       C  0.59574692  0.20625263  0.65192946     0.37100
C1080       C  0.62903877  0.21000901  0.53047946     0.40300
N1081       N  0.53965763  0.13051973  0.62706726    -0.37700
N1082       N  0.55776176  0.17782244  0.57553612    -0.39300
N1083       N  0.63425759  0.12859225  0.69881531    -0.37100
N1084       N  0.65347198  0.17266714  0.64187858    -0.39400
N1085       N  0.62502670  0.15683232  0.54595292    -0.39200
N1086       N  0.63675085  0.21078044  0.50657294    -0.36800
N1087       N  0.59881906  0.25920388  0.63714845    -0.37900
N1088       N  0.58951536  0.20527093  0.67680049    -0.39600
C1089       C  0.60065095  0.14857324  0.85147632    -0.04500
C1090       C  0.59374670  0.13815162  0.87786456     0.09700
C1091       C  0.58104812  0.12113417  0.87457937    -0.01900
C1092       C  0.57553282  0.11434469  0.84501917    -0.00100
C1093       C  0.58196352  0.12507775  0.81851105    -0.03800
C1094       C  0.59452893  0.14227269  0.82187297     0.03300
C1095       C  0.60054922  0.14466363  0.90915237     0.10100
C1096       C  0.57386539  0.11043656  0.90167269     0.36000
C1097       C  0.60074251  0.15384509  0.79505828     0.39400
C1098       C  0.58781107  0.15662870  0.92776937    -0.04100
C1099       C  0.59439178  0.16287175  0.95719216     0.03000
C1100       C  0.61390311  0.15735796  0.96801023    -0.03700
C1101       C  0.62647692  0.14507199  0.94940518     0.00000
C1102       C  0.61982329  0.13882147  0.92007620    -0.02500
C1103       C  0.56791854  0.16247249  0.91652026     0.36700
C1104       C  0.64646087  0.13909898  0.96007820     0.40400
C1105       C  0.58064562  0.17407927  0.97688027     0.39500
C1106       C  0.63285033  0.12644592  0.90088346     0.36400
C1107       C  0.61425294  0.16566625  0.85496272     0.37100
C1108       C  0.56416654  0.09564140  0.84187985     0.40300
N1109       N  0.56958684  0.18285466  0.99265874    -0.37700
N1110       N  0.55206867  0.16705724  0.90740278    -0.39300
N1111       N  0.66237207  0.13422691  0.96858037    -0.37100
N1112       N  0.64318704  0.11664896  0.88538140    -0.39400
N1113       N  0.56799620  0.10194119  0.92322724    -0.39200
N1114       N  0.55528581  0.08064024  0.83916148    -0.36800
N1115       N  0.60566046  0.16318798  0.77376219    -0.37900
N1116       N  0.62526131  0.17915286  0.85804232    -0.39600
C1117       C  0.40629679  0.14355350  0.35691117    -0.04500
C1118       C  0.41680946  0.13761359  0.38373470     0.09700
C1119       C  0.43375746  0.12467362  0.38149226    -0.01900
C1120       C  0.43988896  0.11726653  0.35256077    -0.00100
C1121       C  0.42928435  0.12307867  0.32565517    -0.03800
C1122       C  0.41247942  0.13629816  0.32794786     0.03300
C1123       C  0.40909126  0.14380011  0.41460160     0.10100
C1124       C  0.44447352  0.11848929  0.40915225     0.36000
C1125       C  0.40132970  0.14231240  0.30058918     0.39400
C1126       C  0.39189512  0.13411000  0.42704470    -0.04100
C1127       C  0.38455785  0.13962904  0.45629165     0.03000
C1128       C  0.39429624  0.15516232  0.47327450    -0.03700
C1129       C  0.41182785  0.16458743  0.46081559     0.00000
C1130       C  0.41910966  0.15894694  0.43155159    -0.02500
C1131       C  0.38177607  0.11832472  0.40961630     0.36700
C1132       C  0.42311807  0.17939159  0.47855351     0.40400
C1133       C  0.36693299  0.12921073  0.46856686     0.39500
C1134       C  0.43709556  0.16853579  0.41893307     0.36400
C1135       C  0.38877671  0.15675355  0.35928755     0.37100
C1136       C  0.45608547  0.10244999  0.35085422     0.40300
N1137       N  0.35299735  0.12067769  0.47832910    -0.37700
N1138       N  0.37371348  0.10584376  0.39554332    -0.39300
N1139       N  0.43222603  0.19112111  0.49266565    -0.37100
N1140       N  0.45152413  0.17605705  0.40891555    -0.39400
N1141       N  0.45303028  0.11367799  0.43125936    -0.39200
N1142       N  0.46882971  0.09043679  0.34957929    -0.36800
N1143       N  0.39226576  0.14697844  0.27888128    -0.37900
N1144       N  0.37470636  0.16714145  0.36125963    -0.39600
C1145       C  0.56217969  0.11986212  0.11781906    -0.04500
C1146       C  0.56133791  0.12280401  0.14996025     0.09700
C1147       C  0.57753334  0.13265251  0.16503186    -0.01900
C1148       C  0.59393337  0.14054249  0.14779414    -0.00100
C1149       C  0.59388997  0.13912454  0.11529718    -0.03800
C1150       C  0.57840312  0.12791315  0.10055103     0.03300
C1151       C  0.54223967  0.11768779  0.16701452     0.10100
C1152       C  0.57659155  0.13589095  0.19800153     0.36000
C1153       C  0.57908877  0.12470209  0.06751984     0.39400
C1154       C  0.54072074  0.09995701  0.18507145    -0.04100
C1155       C  0.52223256  0.09509492  0.19989461     0.03000
C1156       C  0.50488846  0.10724601  0.19502355    -0.03700
C1157       C  0.50644022  0.12489860  0.17679584     0.00000
C1158       C  0.52521170  0.13046250  0.16381362    -0.02500
C1159       C  0.55805811  0.08659375  0.18788713     0.36700
C1160       C  0.48875117  0.13756188  0.17174298     0.40400
C1161       C  0.52096335  0.07750254  0.21978708     0.39500
C1162       C  0.52719144  0.14953205  0.14746991     0.36400
C1163       C  0.54567264  0.10948833  0.10234078     0.37100
C1164       C  0.61018068  0.15117499  0.16343401     0.40300
N1165       N  0.51997440  0.06356003  0.23589767    -0.37700
N1166       N  0.57188435  0.07589266  0.18996603    -0.39300
N1167       N  0.47462388  0.14759007  0.16754606    -0.37100
N1168       N  0.52901215  0.16480563  0.13467258    -0.39400
N1169       N  0.57575903  0.13859073  0.22429579    -0.39200
N1170       N  0.62319045  0.15956590  0.17593059    -0.36800
N1171       N  0.57963816  0.12204287  0.04119047    -0.37900
N1172       N  0.53235520  0.10137863  0.09016034    -0.39600
C1173       C  0.57472640  0.34950237  0.35199361    -0.04500
C1174       C  0.56571679  0.33156037  0.36314977     0.09700
C1175       C  0.54995256  0.32228876  0.34631516    -0.01900
C1176       C  0.54411434  0.33019182  0.31747606    -0.00100
C1177       C  0.55406660  0.34743983  0.30538377    -0.03800
C1178       C  0.56863611  0.35764345  0.32349598     0.03300
C1179       C  0.57332107  0.32220423  0.39227443     0.10100
C1180       C  0.53989606  0.30448017  0.35853900     0.36000
C1181       C  0.57658766  0.37708182  0.31359106     0.39400
C1182       C  0.56904114  0.33128628  0.42086819    -0.04100
C1183       C  0.57798488  0.32369379  0.44798931     0.03000
C1184       C  0.59057627  0.30634825  0.44686620    -0.03700
C1185       C  0.59401626  0.29667055  0.41832987     0.00000
C1186       C  0.58578141  0.30486224  0.39104057    -0.02500
C1187       C  0.55554681  0.34861492  0.42228434     0.36700
C1188       C  0.60670440  0.27877020  0.41669189     0.40400
C1189       C  0.57403765  0.33372190  0.47706275     0.39500
C1190       C  0.59068509  0.29592731  0.36147128     0.36400
C1191       C  0.59049305  0.35945531  0.36971074     0.37100
C1192       C  0.52806829  0.32032456  0.30021524     0.40300
N1193       N  0.57098495  0.34185676  0.50018185    -0.37700
N1194       N  0.54480369  0.36242953  0.42340970    -0.39300
N1195       N  0.61671944  0.26443567  0.41523311    -0.37100
N1196       N  0.59456627  0.28895572  0.33776354    -0.39400
N1197       N  0.53181572  0.29024870  0.36811866    -0.39200
N1198       N  0.51513196  0.31258059  0.28660681    -0.36800
N1199       N  0.58264143  0.39272394  0.30583019    -0.37900
N1200       N  0.60299540  0.36739265  0.38396252    -0.39600
C1201       C  0.61237455  0.27381160  0.08443777    -0.04500
C1202       C  0.60577211  0.27582708  0.11513422     0.09700
C1203       C  0.60753060  0.25928388  0.13555203    -0.01900
C1204       C  0.61531254  0.24061727  0.12514469    -0.00100
C1205       C  0.62073109  0.23810103  0.09378815    -0.03800
C1206       C  0.61969877  0.25501929  0.07371502     0.03300
C1207       C  0.59623503  0.29509966  0.12599863     0.10100
C1208       C  0.60070544  0.26134913  0.16718077     0.36000
C1209       C  0.62670732  0.25334111  0.04216712     0.39400
C1210       C  0.57572666  0.29916828  0.11909621    -0.04100
C1211       C  0.56575491  0.31554663  0.13321406     0.03000
C1212       C  0.57616658  0.32793926  0.15449486    -0.03700
C1213       C  0.59719355  0.32494633  0.15924484     0.00000
C1214       C  0.60716030  0.30851402  0.14504071    -0.02500
C1215       C  0.56468766  0.28616966  0.09807872     0.36700
C1216       C  0.60839522  0.33806375  0.17987276     0.40400
C1217       C  0.54470532  0.31959743  0.12565279     0.39500
C1218       C  0.62857580  0.30502759  0.15056616     0.36400
C1219       C  0.61154220  0.29113794  0.06392517     0.37100
C1220       C  0.61708131  0.22392541  0.14672114     0.40300
N1221       N  0.52792817  0.32260613  0.11936050    -0.37700
N1222       N  0.55577849  0.27595877  0.08119403    -0.39300
N1223       N  0.61738805  0.34856252  0.19624727    -0.37100
N1224       N  0.64566161  0.30219255  0.15487574    -0.39400
N1225       N  0.59520728  0.26307514  0.19234190    -0.39200
N1226       N  0.61861397  0.21074066  0.16416318    -0.36800
N1227       N  0.63236312  0.25207750  0.01702600    -0.37900
N1228       N  0.61088396  0.30501849  0.04765683    -0.39600
C1229       C  0.38787146  0.29854687  0.91323070    -0.04500
C1230       C  0.40382064  0.31264461  0.91636084     0.09700
C1231       C  0.41170002  0.31702672  0.94577855    -0.01900
C1232       C  0.40340483  0.30767308  0.97208725    -0.00100
C1233       C  0.38681363  0.29424992  0.96914156    -0.03800
C1234       C  0.37939366  0.28933449  0.93957314     0.03300
C1235       C  0.41278316  0.32245432  0.88850899     0.10100
C1236       C  0.42802846  0.33158382  0.94895456     0.36000
C1237       C  0.36347865  0.27433977  0.93621708     0.39400
C1238       C  0.40335646  0.33945450  0.87509346    -0.04100
C1239       C  0.41125921  0.34800900  0.84785620     0.03000
C1240       C  0.42903677  0.33990364  0.83427290    -0.03700
C1241       C  0.43903693  0.32347652  0.84881921     0.00000
C1242       C  0.43079896  0.31471133  0.87567665    -0.02500
C1243       C  0.38574389  0.34841629  0.88973991     0.36700
C1244       C  0.45745400  0.31502751  0.83583844     0.40400
C1245       C  0.40126790  0.36545632  0.83429310     0.39500
C1246       C  0.44077654  0.29761848  0.89024024     0.36400
C1247       C  0.38013170  0.29363151  0.88287580     0.37100
C1248       C  0.41150170  0.31250138  0.00228756     0.40300
N1249       N  0.39329289  0.37932823  0.82335382    -0.37700
N1250       N  0.37182119  0.35575440  0.90146970    -0.39300
N1251       N  0.47219495  0.30823124  0.82576092    -0.37100
N1252       N  0.44865195  0.28404016  0.90214018    -0.39400
N1253       N  0.44101823  0.34324961  0.95143855    -0.39200
N1254       N  0.41799264  0.31625508  0.02636773    -0.36800
N1255       N  0.35090799  0.26224052  0.93350954    -0.37900
N1256       N  0.37392354  0.28973895  0.85867725    -0.39600
C1257       C  0.39417433  0.19260013  0.09904794    -0.04500
C1258       C  0.38097518  0.18291205  0.11989037     0.09700
C1259       C  0.36095793  0.18996575  0.12340724    -0.01900
C1260       C  0.35466999  0.20776899  0.10816764    -0.00100
C1261       C  0.36825608  0.21824633  0.08847723    -0.03800
C1262       C  0.38780262  0.21004706  0.08304785     0.03300
C1263       C  0.38922133  0.16723931  0.14129797     0.10100
C1264       C  0.34706526  0.17910688  0.14337859     0.36000
C1265       C  0.40196153  0.22016031  0.06257928     0.39400
C1266       C  0.39787320  0.17347611  0.16934903    -0.04100
C1267       C  0.40789738  0.15942260  0.18839423     0.03000
C1268       C  0.40924406  0.13875570  0.17966693    -0.03700
C1269       C  0.39936284  0.13238283  0.15221917     0.00000
C1270       C  0.38964304  0.14668376  0.13298807    -0.02500
C1271       C  0.39682994  0.19461952  0.17823045     0.36700
C1272       C  0.39953347  0.11130815  0.14303178     0.40400
C1273       C  0.41673600  0.16657908  0.21701840     0.39500
C1274       C  0.38047163  0.14037735  0.10418562     0.36400
C1275       C  0.41473570  0.18512744  0.09534986     0.37100
C1276       C  0.33427224  0.21533125  0.11315180     0.40300
N1277       N  0.42385634  0.17243942  0.23965490    -0.37700
N1278       N  0.39595563  0.21148454  0.18523639    -0.39300
N1279       N  0.39951165  0.09447169  0.13570583    -0.37100
N1280       N  0.37321301  0.13535149  0.08118729    -0.39400
N1281       N  0.33598833  0.17029614  0.15915109    -0.39200
N1282       N  0.31802873  0.22135167  0.11737910    -0.36800
N1283       N  0.41327320  0.22815885  0.04619187    -0.37900
N1284       N  0.43113028  0.17913708  0.09262185    -0.39600
C1285       C  0.44476688  0.35323805  0.18616938    -0.04500
C1286       C  0.44241331  0.34747659  0.15521503     0.09700
C1287       C  0.45865436  0.34975588  0.13439114    -0.01900
C1288       C  0.47753209  0.35704020  0.14473484    -0.00100
C1289       C  0.48050519  0.36129089  0.17637754    -0.03800
C1290       C  0.46375399  0.36006952  0.19682965     0.03300
C1291       C  0.42349236  0.33724177  0.14478254     0.10100
C1292       C  0.45617142  0.34356693  0.10255712     0.36000
C1293       C  0.46592134  0.36582531  0.22889875     0.39400
C1294       C  0.40852971  0.34811792  0.12856402    -0.04100
C1295       C  0.39240040  0.33773678  0.11425039     0.03000
C1296       C  0.39130607  0.31636710  0.11591385    -0.03700
C1297       C  0.40575678  0.30566769  0.13390311     0.00000
C1298       C  0.42168529  0.31614836  0.14840925    -0.02500
C1299       C  0.41018820  0.36992389  0.12584145     0.36700
C1300       C  0.40537679  0.28373030  0.13565131     0.40400
C1301       C  0.37707024  0.34910136  0.09761997     0.39500
C1302       C  0.43691526  0.30511113  0.16584715     0.36400
C1303       C  0.42777471  0.35146533  0.20722816     0.37100
C1304       C  0.49393208  0.35937098  0.12274099     0.40300
N1305       N  0.36485534  0.35820270  0.08438503    -0.37700
N1306       N  0.41159204  0.38732500  0.12369904    -0.39300
N1307       N  0.40519921  0.26623424  0.13698911    -0.37100
N1308       N  0.44907463  0.29638770  0.17977647    -0.39400
N1309       N  0.45415430  0.33847934  0.07725235    -0.39200
N1310       N  0.50682047  0.36142632  0.10491601    -0.36800
N1311       N  0.46764763  0.37035484  0.25450172    -0.37900
N1312       N  0.41423007  0.35003364  0.22403542    -0.39600
C1313       C  0.58305338  0.65075915  0.15617368    -0.04500
C1314       C  0.57621981  0.64135182  0.12898237     0.09700
C1315       C  0.56145630  0.62595317  0.13057970    -0.01900
C1316       C  0.55404855  0.61944606  0.15940437    -0.00100
C1317       C  0.56149703  0.62827219  0.18681134    -0.03800
C1318       C  0.57560527  0.64435974  0.18501565     0.03300
C1319       C  0.58456734  0.64774932  0.09853658     0.10100
C1320       C  0.55407132  0.61670393  0.10247295     0.36000
C1321       C  0.58184974  0.65487865  0.21274137     0.39400
C1322       C  0.60132746  0.63749209  0.08582298    -0.04100
C1323       C  0.60952140  0.64379653  0.05740313     0.03000
C1324       C  0.60098094  0.66049489  0.04154990    -0.03700
C1325       C  0.58377821  0.67034916  0.05397993     0.00000
C1326       C  0.57570829  0.66405777  0.08248572    -0.02500
C1327       C  0.61023039  0.62050928  0.10217853     0.36700
C1328       C  0.57375689  0.68637097  0.03686721     0.40400
C1329       C  0.62703719  0.63332796  0.04494292     0.39500
C1330       C  0.55819541  0.67427846  0.09535772     0.36400
C1331       C  0.59784298  0.66697842  0.15437040     0.37100
C1332       C  0.53916483  0.60329965  0.16076317     0.40300
N1333       N  0.64094673  0.62496030  0.03485340    -0.37700
N1334       N  0.61734525  0.60694607  0.11515788    -0.39300
N1335       N  0.56567752  0.69904550  0.02312287    -0.37100
N1336       N  0.54422936  0.68240371  0.10570284    -0.39400
N1337       N  0.54820448  0.60936532  0.07999742    -0.39200
N1338       N  0.52720862  0.59049677  0.16182292    -0.36800
N1339       N  0.58665178  0.66337968  0.23484970    -0.37900
N1340       N  0.60963628  0.67990970  0.15282280    -0.39600
C1341       C  0.55789549  0.51095626  0.22262373    -0.04500
C1342       C  0.55672152  0.49669218  0.24666201     0.09700
C1343       C  0.55628495  0.50325347  0.27751357    -0.01900
C1344       C  0.55539669  0.52411646  0.28425601    -0.00100
C1345       C  0.55502853  0.53850847  0.26001824    -0.03800
C1346       C  0.55700736  0.53177380  0.22919290     0.03300
C1347       C  0.55443977  0.47480465  0.23918251     0.10100
C1348       C  0.55650823  0.48843819  0.30222871     0.36000
C1349       C  0.55857122  0.54619253  0.20405979     0.39400
C1350       C  0.57115356  0.46156609  0.24137400    -0.04100
C1351       C  0.56893724  0.44107297  0.23319379     0.03000
C1352       C  0.54972021  0.43355439  0.22447531    -0.03700
C1353       C  0.53295740  0.44678953  0.22253380     0.00000
C1354       C  0.53544215  0.46745866  0.22916283    -0.02500
C1355       C  0.59050107  0.46898986  0.25252198     0.36700
C1356       C  0.51324396  0.43923805  0.21303931     0.40400
C1357       C  0.58634484  0.42765485  0.23438457     0.39500
C1358       C  0.51848177  0.48125547  0.22542878     0.36400
C1359       C  0.55991326  0.50407429  0.19104436     0.37100
C1360       C  0.55397530  0.53055175  0.31607469     0.40300
N1361       N  0.60024624  0.41697590  0.23500598    -0.37700
N1362       N  0.60586329  0.47485671  0.26182737    -0.39300
N1363       N  0.49751828  0.43319837  0.20552784    -0.37100
N1364       N  0.50505859  0.49232687  0.22208785    -0.39400
N1365       N  0.55694025  0.47650881  0.32177065    -0.39200
N1366       N  0.55288890  0.53554144  0.34155137    -0.36800
N1367       N  0.55992610  0.55755703  0.18386415    -0.37900
N1368       N  0.56157712  0.49847463  0.16594466    -0.39600
C1369       C  0.41107481  0.63957840  0.57459044    -0.04500
C1370       C  0.40347530  0.64770334  0.60226475     0.09700
C1371       C  0.38819590  0.66263759  0.60141259    -0.01900
C1372       C  0.38005856  0.66897516  0.57297276    -0.00100
C1373       C  0.38720763  0.66035631  0.54526928    -0.03800
C1374       C  0.40303392  0.64594766  0.54612061     0.03300
C1375       C  0.41019389  0.63917160  0.63242727     0.10100
C1376       C  0.38020149  0.67075160  0.62994321     0.36000
C1377       C  0.41104173  0.63766573  0.51767897     0.39400
C1378       C  0.42658960  0.64782972  0.64851944    -0.04100
C1379       C  0.43218089  0.64019201  0.67768611     0.03000
C1380       C  0.42168659  0.62346818  0.69053616    -0.03700
C1381       C  0.40564378  0.61446683  0.67377239     0.00000
C1382       C  0.39979395  0.62246401  0.64502308    -0.02500
C1383       C  0.43756509  0.66470994  0.63511307     0.36700
C1384       C  0.39538343  0.59666764  0.68565726     0.40400
C1385       C  0.44804483  0.65026007  0.69504172     0.39500
C1386       C  0.38291212  0.61360918  0.62834088     0.36400
C1387       C  0.42663459  0.62408537  0.57556977     0.37100
C1388       C  0.36339823  0.68333511  0.57241624     0.40300
N1389       N  0.46059692  0.65835874  0.70899460    -0.37700
N1390       N  0.44639453  0.67812401  0.62439709    -0.39300
N1391       N  0.38720853  0.58244687  0.69508422    -0.37100
N1392       N  0.36942547  0.60665869  0.61497457    -0.39400
N1393       N  0.37375629  0.67714104  0.65271593    -0.39200
N1394       N  0.35003549  0.69468792  0.57188257    -0.36800
N1395       N  0.41734192  0.63111649  0.49491115    -0.37900
N1396       N  0.43896052  0.61163455  0.57642971    -0.39600
C1397       C  0.42330166  0.64591478  0.35546861    -0.04500
C1398       C  0.42721521  0.62503342  0.35856200     0.09700
C1399       C  0.41462106  0.61306224  0.37756205    -0.01900
C1400       C  0.39894695  0.62215774  0.39486246    -0.00100
C1401       C  0.39587794  0.64332351  0.39330006    -0.03800
C1402       C  0.40778936  0.65505510  0.37281279     0.03300
C1403       C  0.44611055  0.61647081  0.34461872     0.10100
C1404       C  0.41848109  0.59154921  0.38044906     0.36000
C1405       C  0.40462144  0.67672375  0.37011577     0.39400
C1406       C  0.46346391  0.61386608  0.36321833    -0.04100
C1407       C  0.48248547  0.60996263  0.34964380     0.03000
C1408       C  0.48416634  0.60766867  0.31727182    -0.03700
C1409       C  0.46634928  0.60856015  0.29901223     0.00000
C1410       C  0.44749421  0.61335013  0.31258369    -0.02500
C1411       C  0.46181964  0.61583051  0.39642323     0.36700
C1412       C  0.46725129  0.60426300  0.26629955     0.40400
C1413       C  0.50038556  0.60962052  0.36911421     0.39500
C1414       C  0.42956142  0.61563555  0.29351650     0.36400
C1415       C  0.43594234  0.65822931  0.33545236     0.37100
C1416       C  0.38711722  0.60992089  0.41604185     0.40300
N1417       N  0.51458353  0.60950549  0.38480341    -0.37700
N1418       N  0.46039437  0.61713118  0.42290655    -0.39300
N1419       N  0.46793361  0.60069796  0.24023939    -0.37100
N1420       N  0.41528913  0.61761198  0.27827740    -0.39400
N1421       N  0.42163169  0.57440124  0.38296922    -0.39200
N1422       N  0.37774007  0.60018510  0.43304614    -0.36800
N1423       N  0.40244290  0.69404602  0.36801905    -0.37900
N1424       N  0.44598844  0.66800841  0.31941938    -0.39600
C1425       C  0.58571397  0.80165351  0.62125353    -0.04500
C1426       C  0.57254935  0.81839629  0.61851460     0.09700
C1427       C  0.56773299  0.82608546  0.58912096    -0.01900
C1428       C  0.57718537  0.81805789  0.56272628    -0.00100
C1429       C  0.59084926  0.80160520  0.56542048    -0.03800
C1430       C  0.59460477  0.79306372  0.59476244     0.03300
C1431       C  0.56540557  0.82913292  0.64678320     0.10100
C1432       C  0.55308159  0.84234345  0.58608942     0.36000
C1433       C  0.60839468  0.77609836  0.59799371     0.39400
C1434       C  0.57602492  0.84634522  0.65716253    -0.04100
C1435       C  0.57031121  0.85593236  0.68476604     0.03000
C1436       C  0.55439698  0.84789899  0.70288273    -0.03700
C1437       C  0.54338091  0.83095267  0.69199416     0.00000
C1438       C  0.54875338  0.82176494  0.66382232    -0.02500
C1439       C  0.59325185  0.85384673  0.63974941     0.36700
C1440       C  0.52715837  0.82229767  0.71037443     0.40400
C1441       C  0.58051147  0.87439713  0.69405180     0.39500
C1442       C  0.53740512  0.80450451  0.65255772     0.36400
C1443       C  0.59058226  0.79370671  0.65153366     0.37100
C1444       C  0.57282736  0.82687617  0.53280775     0.40300
N1445       N  0.58852995  0.88921952  0.70130439    -0.37700
N1446       N  0.60704376  0.85969061  0.62585270    -0.39300
N1447       N  0.51425942  0.81535149  0.72506699    -0.37100
N1448       N  0.52831228  0.79075884  0.64354525    -0.39400
N1449       N  0.54126714  0.85518214  0.58346966    -0.39200
N1450       N  0.56948461  0.83411526  0.50905318    -0.36800
N1451       N  0.61934449  0.76251900  0.60062353    -0.37900
N1452       N  0.59442238  0.78745316  0.67575559    -0.39600
C1453       C  0.60842503  0.70782500  0.38285859    -0.04500
C1454       C  0.60346889  0.68944798  0.39757129     0.09700
C1455       C  0.60569920  0.68769813  0.42978481    -0.01900
C1456       C  0.61170964  0.70461675  0.44743685    -0.00100
C1457       C  0.61550458  0.72346140  0.43291992    -0.03800
C1458       C  0.61449982  0.72472157  0.40032317     0.03300
C1459       C  0.59428879  0.67264028  0.37910356     0.10100
C1460       C  0.60148353  0.66851886  0.44476416     0.36000
C1461       C  0.61861254  0.74365606  0.38447970     0.39400
C1462       C  0.60647558  0.66046078  0.35990808    -0.04100
C1463       C  0.59742973  0.64617823  0.33995491     0.03000
C1464       C  0.57604704  0.64408220  0.33896781    -0.03700
C1465       C  0.56392676  0.65628707  0.35845397     0.00000
C1466       C  0.57302416  0.67033965  0.37852870    -0.02500
C1467       C  0.62830872  0.66321357  0.35999088     0.36700
C1468       C  0.54196078  0.65466185  0.35776720     0.40400
C1469       C  0.61011211  0.63465146  0.31911091     0.39500
C1470       C  0.56040258  0.68295861  0.39799100     0.36400
C1471       C  0.60647166  0.70954701  0.34966041     0.37100
C1472       C  0.61423942  0.70251159  0.48046758     0.40300
N1473       N  0.62029765  0.62557774  0.30239324    -0.37700
N1474       N  0.64569974  0.66561709  0.36001597    -0.39300
N1475       N  0.52444576  0.65358458  0.35694692    -0.37100
N1476       N  0.55029389  0.69298103  0.41350771    -0.39400
N1477       N  0.59813259  0.65321759  0.45670888    -0.39200
N1478       N  0.61633916  0.70086802  0.50682702    -0.36800
N1479       N  0.62191346  0.75868748  0.37172395    -0.37900
N1480       N  0.60493204  0.71084741  0.32317647    -0.39600
C1481       C  0.41875864  0.82007942  0.15907170    -0.04500
C1482       C  0.40181081  0.82989885  0.14610039     0.09700
C1483       C  0.39328214  0.84684297  0.16081177    -0.01900
C1484       C  0.40166063  0.85397840  0.18857488    -0.00100
C1485       C  0.41825229  0.84373511  0.20231907    -0.03800
C1486       C  0.42679363  0.82674165  0.18733347     0.03300
C1487       C  0.39334238  0.82267661  0.11628877     0.10100
C1488       C  0.37599072  0.85703719  0.14709294     0.36000
C1489       C  0.44338759  0.81558187  0.20130889     0.39400
C1490       C  0.37641167  0.80962165  0.11591655    -0.04100
C1491       C  0.36885482  0.80235081  0.08767619     0.03000
C1492       C  0.37838142  0.80797087  0.05983146    -0.03700
C1493       C  0.39508035  0.82135625  0.06023145     0.00000
C1494       C  0.40257683  0.82864259  0.08844082    -0.02500
C1495       C  0.36691184  0.80359350  0.14463912     0.36700
C1496       C  0.40487957  0.82725194  0.03165554     0.40400
C1497       C  0.35083982  0.78974422  0.08715515     0.39500
C1498       C  0.41998426  0.84207394  0.08899165     0.36400
C1499       C  0.42795787  0.80315245  0.14307912     0.37100
C1500       C  0.39368324  0.87235965  0.20221354     0.40300
N1501       N  0.33636900  0.77982521  0.08668756    -0.37700
N1502       N  0.35937377  0.79879812  0.16758491    -0.39300
N1503       N  0.41267712  0.83194981  0.00886310    -0.37100
N1504       N  0.43392232  0.85271402  0.08964280    -0.39400
N1505       N  0.36216194  0.86508283  0.13613110    -0.39200
N1506       N  0.38743703  0.88708612  0.21302457    -0.36800
N1507       N  0.45658165  0.80659068  0.21238070    -0.37900
N1508       N  0.43531286  0.78979442  0.13001540    -0.39600
C1509       C  0.42491795  0.99947789  0.23548113    -0.04500
C1510       C  0.42791271  0.99227940  0.26572781     0.09700
C1511       C  0.43054673  0.00606770  0.29005963    -0.01900
C1512       C  0.43205535  0.02692276  0.28381617    -0.00100
C1513       C  0.43092556  0.03409146  0.25309246    -0.03800
C1514       C  0.42604407  0.02039789  0.22920224     0.03300
C1515       C  0.42974057  0.97012962  0.27173766     0.10100
C1516       C  0.43207118  0.99869015  0.32147165     0.36000
C1517       C  0.42268492  0.02762006  0.19805734     0.39400
C1518       C  0.44871271  0.96061218  0.26803184    -0.04100
C1519       C  0.45079255  0.93979909  0.27412120     0.03000
C1520       C  0.43379696  0.92825179  0.28355947    -0.03700
C1521       C  0.41482675  0.93792289  0.28770022     0.00000
C1522       C  0.41284651  0.95882885  0.28171770    -0.02500
C1523       C  0.46610074  0.97230959  0.25783399     0.36700
C1524       C  0.39718127  0.92635136  0.29705076     0.40400
C1525       C  0.47066093  0.93044375  0.27152908     0.39500
C1526       C  0.39337726  0.96876651  0.28534080     0.36400
C1527       C  0.42127609  0.98522749  0.21074248     0.37100
C1528       C  0.43425211  0.04101111  0.30919208     0.40300
N1529       N  0.48648298  0.92298426  0.26955832    -0.37700
N1530       N  0.47993624  0.98165653  0.24959041    -0.39300
N1531       N  0.38305173  0.91716860  0.30455427    -0.37100
N1532       N  0.37791000  0.97682234  0.28813160    -0.39400
N1533       N  0.43316170  0.99277527  0.34652333    -0.39200
N1534       N  0.43586683  0.05222242  0.32947850    -0.36800
N1535       N  0.41974101  0.03336102  0.17325504    -0.37900
N1536       N  0.41842269  0.97380077  0.19106444    -0.39600
C1537       C  0.37090185  0.76912690  0.41776022    -0.04500
C1538       C  0.37335173  0.76908039  0.38555214     0.09700
C1539       C  0.36805883  0.75184938  0.36834562    -0.01900
C1540       C  0.36178347  0.73408898  0.38353921    -0.00100
C1541       C  0.36084092  0.73355705  0.41614463    -0.03800
C1542       C  0.36479128  0.75138374  0.43312596     0.03300
C1543       C  0.38447661  0.78601279  0.37052392     0.10100
C1544       C  0.37017934  0.75210324  0.33509758     0.36000
C1545       C  0.36318036  0.75141765  0.46645664     0.39400
C1546       C  0.40582090  0.78533035  0.36947775    -0.04100
C1547       C  0.41676796  0.80148552  0.35650764     0.03000
C1548       C  0.40640926  0.81847513  0.34430503    -0.03700
C1549       C  0.38493589  0.81927250  0.34602438     0.00000
C1550       C  0.37401093  0.80281455  0.35851630    -0.02500
C1551       C  0.41645080  0.76774932  0.38145890     0.36700
C1552       C  0.37397110  0.83673271  0.33455040     0.40400
C1553       C  0.43879238  0.80080676  0.35667463     0.39500
C1554       C  0.35199819  0.80273355  0.35817626     0.36400
C1555       C  0.37563975  0.78725306  0.43513394     0.37100
C1556       C  0.35805550  0.71597061  0.36555356     0.40300
N1557       N  0.45633717  0.80028145  0.35688461    -0.37700
N1558       N  0.42473429  0.75360865  0.39096171    -0.39300
N1559       N  0.36506728  0.85070146  0.32577219    -0.37100
N1560       N  0.33445056  0.80235977  0.35765089    -0.39400
N1561       N  0.37186598  0.75226201  0.30856995    -0.39200
N1562       N  0.35522552  0.70150004  0.35123296    -0.36800
N1563       N  0.36206773  0.75147389  0.49306015    -0.37900
N1564       N  0.37942923  0.80175689  0.44884050    -0.39600
C1565       C  0.54654758  0.82187926  0.40390146    -0.04500
C1566       C  0.55342241  0.83058256  0.37617901     0.09700
C1567       C  0.57422290  0.83008946  0.36880165    -0.01900
C1568       C  0.58814598  0.82051914  0.38887193    -0.00100
C1569       C  0.58137889  0.81209272  0.41714084    -0.03800
C1570       C  0.56040527  0.81301810  0.42454642     0.03300
C1571       C  0.53817627  0.83904465  0.35421123     0.10100
C1572       C  0.58116190  0.83904778  0.34017154     0.36000
C1573       C  0.55274513  0.80484372  0.45337027     0.39400
C1574       C  0.53135489  0.85913624  0.35742143    -0.04100
C1575       C  0.51373683  0.86560681  0.34173609     0.03000
C1576       C  0.50277508  0.85187329  0.32314945    -0.03700
C1577       C  0.51099455  0.83245444  0.31738549     0.00000
C1578       C  0.52860136  0.82606927  0.33303020    -0.02500
C1579       C  0.54223045  0.87285218  0.37752820     0.36700
C1580       C  0.50087581  0.81861319  0.29656061     0.40400
C1581       C  0.50724038  0.88651377  0.34399007     0.39500
C1582       C  0.53639587  0.80575989  0.32852844     0.36400
C1583       C  0.52497527  0.82150891  0.41073836     0.37100
C1584       C  0.60908162  0.81819235  0.37927257     0.40300
N1585       N  0.50226591  0.90326906  0.34540550    -0.37700
N1586       N  0.55109167  0.88368235  0.39356095    -0.39300
N1587       N  0.49284538  0.80765437  0.27974135    -0.37100
N1588       N  0.54270456  0.78960081  0.32503029    -0.39400
N1589       N  0.58668099  0.84625082  0.31735421    -0.39200
N1590       N  0.62571739  0.81614491  0.37132180    -0.36800
N1591       N  0.54647736  0.79826039  0.47618114    -0.37900
N1592       N  0.50776983  0.82103027  0.41602813    -0.39600
C1593       C  0.92676662  0.64131835  0.86215924    -0.04500
C1594       C  0.90719448  0.64985718  0.86393174     0.09700
C1595       C  0.89462877  0.65018165  0.83767067    -0.01900
C1596       C  0.90128772  0.64131048  0.81002839    -0.00100
C1597       C  0.92047141  0.63167611  0.80861098    -0.03800
C1598       C  0.93341168  0.63218911  0.83465190     0.03300
C1599       C  0.89937792  0.65746404  0.89403003     0.10100
C1600       C  0.87463342  0.65929884  0.83927504     0.36000
C1601       C  0.95323436  0.62266394  0.83382751     0.39400
C1602       C  0.89779437  0.67837853  0.89958439    -0.04100
C1603       C  0.88980241  0.68544574  0.92771552     0.03000
C1604       C  0.88431463  0.67154921  0.95130285    -0.03700
C1605       C  0.88673090  0.65048889  0.94582578     0.00000
C1606       C  0.89361457  0.64355218  0.91703029    -0.02500
C1607       C  0.90458526  0.69262806  0.87627969     0.36700
C1608       C  0.88291633  0.63571379  0.96994751     0.40400
C1609       C  0.88677594  0.70701132  0.93167632     0.39500
C1610       C  0.89479616  0.62199040  0.91092321     0.36400
C1611       C  0.93986882  0.64154749  0.88903189     0.37100
C1612       C  0.88841281  0.64245720  0.78292671     0.40300
N1613       N  0.88432255  0.72424115  0.93463718    -0.37700
N1614       N  0.91009782  0.70391276  0.85767647    -0.39300
N1615       N  0.88002827  0.62384832  0.98908346    -0.37100
N1616       N  0.89577101  0.60482561  0.90589623    -0.39400
N1617       N  0.85870231  0.66661742  0.84042477    -0.39200
N1618       N  0.87818268  0.64334404  0.76129820    -0.36800
N1619       N  0.96908520  0.61513362  0.83337322    -0.37900
N1620       N  0.95020080  0.64169132  0.91057858    -0.39600
C1621       C  0.88049135  0.81818141  0.41021949    -0.04500
C1622       C  0.89331409  0.83521047  0.41201789     0.09700
C1623       C  0.89735379  0.84416448  0.44079590    -0.01900
C1624       C  0.88915531  0.83566808  0.46790655    -0.00100
C1625       C  0.87727858  0.81781013  0.46632178    -0.03800
C1626       C  0.87252081  0.80949600  0.43722570     0.03300
C1627       C  0.90275489  0.84335021  0.38333468     0.10100
C1628       C  0.91029957  0.86189882  0.44250504     0.36000
C1629       C  0.85878955  0.79239426  0.43485212     0.39400
C1630       C  0.89488524  0.86088408  0.36925244    -0.04100
C1631       C  0.90259892  0.86746235  0.34069750     0.03000
C1632       C  0.91774479  0.85604345  0.32540769    -0.03700
C1633       C  0.92602944  0.83875323  0.34014131     0.00000
C1634       C  0.91871047  0.83263269  0.36918241    -0.02500
C1635       C  0.87837998  0.87182558  0.38375429     0.36700
C1636       C  0.94136359  0.82652745  0.32503155     0.40400
C1637       C  0.89510289  0.88620056  0.32743955     0.39500
C1638       C  0.92714378  0.81489436  0.38424377     0.36400
C1639       C  0.87558769  0.80956137  0.38042735     0.37100
C1640       C  0.89341327  0.84515269  0.49728101     0.40300
N1641       N  0.88917407  0.90118084  0.31689309    -0.37700
N1642       N  0.86519917  0.88053063  0.39527643    -0.39300
N1643       N  0.95354812  0.81664783  0.31317584    -0.37100
N1644       N  0.93375453  0.80071827  0.39631228    -0.39400
N1645       N  0.92057874  0.87605871  0.44384478    -0.39200
N1646       N  0.89680956  0.85300628  0.52051963    -0.36800
N1647       N  0.84776836  0.77883216  0.43299779    -0.37900
N1648       N  0.87177254  0.80270692  0.35661391    -0.39600
C1649       C  0.75918539  0.77089664  0.52605795    -0.04500
C1650       C  0.74801035  0.78861698  0.53210052     0.09700
C1651       C  0.75782212  0.80560091  0.54478605    -0.01900
C1652       C  0.77886414  0.80504704  0.55092303    -0.00100
C1653       C  0.79041800  0.78768593  0.54322747    -0.03800
C1654       C  0.78030187  0.77045395  0.53125611     0.03300
C1655       C  0.72602787  0.78957346  0.52365305     0.10100
C1656       C  0.74631347  0.82393471  0.55036836     0.36000
C1657       C  0.79144788  0.75204895  0.52451895     0.39400
C1658       C  0.71094169  0.78682323  0.54627181    -0.04100
C1659       C  0.69029232  0.78653839  0.53779620     0.03000
C1660       C  0.68463808  0.78835181  0.50644489    -0.03700
C1661       C  0.69977436  0.79168311  0.48394146     0.00000
C1662       C  0.72037045  0.79259446  0.49263383    -0.02500
C1663       C  0.71669901  0.78405935  0.57825538     0.36700
C1664       C  0.69434489  0.79320285  0.45163412     0.40400
C1665       C  0.67485268  0.78497035  0.56149495     0.39500
C1666       C  0.73587292  0.79651513  0.46968864     0.36400
C1667       C  0.74888578  0.75318181  0.51401864     0.37100
C1668       C  0.78857737  0.82270549  0.56406949     0.40300
N1669       N  0.66251297  0.78388627  0.58039619    -0.37700
N1670       N  0.72123782  0.78186331  0.60378080    -0.39300
N1671       N  0.69004804  0.79431756  0.42585409    -0.37100
N1672       N  0.74834296  0.79973222  0.45156211    -0.39400
N1673       N  0.73707021  0.83854668  0.55458522    -0.39200
N1674       N  0.79616033  0.83683799  0.57476264    -0.36800
N1675       N  0.80021018  0.73733527  0.51895683    -0.37900
N1676       N  0.74059774  0.73910559  0.50440519    -0.39600
C1677       C  0.89418939  0.69815899  0.58524754    -0.04500
C1678       C  0.87958399  0.68737047  0.60237977     0.09700
C1679       C  0.85928123  0.69393807  0.60271170    -0.01900
C1680       C  0.85394367  0.71235032  0.58845647    -0.00100
C1681       C  0.86894086  0.72420499  0.57362684    -0.03800
C1682       C  0.88893919  0.71659344  0.57092103     0.03300
C1683       C  0.88628005  0.67100012  0.62377381     0.10100
C1684       C  0.84410350  0.68198367  0.61865779     0.36000
C1685       C  0.90453265  0.72833111  0.55549767     0.39400
C1686       C  0.89217217  0.67618560  0.65387935    -0.04100
C1687       C  0.90078002  0.66152992  0.67342590     0.03000
C1688       C  0.90313178  0.64124853  0.66321693    -0.03700
C1689       C  0.89555262  0.63579590  0.63378760     0.00000
C1690       C  0.88747989  0.65075954  0.61396092    -0.02500
C1691       C  0.88950267  0.69681925  0.66464864     0.36700
C1692       C  0.89646352  0.61500892  0.62329364     0.40400
C1693       C  0.90711252  0.66758710  0.70408461     0.39500
C1694       C  0.88068041  0.64553972  0.58324156     0.36400
C1695       C  0.91483860  0.69062093  0.58358434     0.37100
C1696       C  0.83304977  0.71921461  0.58946508     0.40300
N1697       N  0.91228903  0.67261740  0.72837645    -0.37700
N1698       N  0.88722062  0.71321622  0.67322538    -0.39300
N1699       N  0.89693076  0.59845003  0.61476881    -0.37100
N1700       N  0.87522357  0.64154290  0.55865619    -0.39400
N1701       N  0.83209111  0.67227757  0.63131722    -0.39200
N1702       N  0.81639607  0.72472286  0.59030055    -0.36800
N1703       N  0.91704854  0.73765130  0.54328392    -0.37900
N1704       N  0.93124133  0.68444083  0.58227601    -0.39600
C1705       C  0.07126268  0.84232246  0.87946362    -0.04500
C1706       C  0.08643025  0.82730507  0.88164410     0.09700
C1707       C  0.09448723  0.81868362  0.85457064    -0.01900
C1708       C  0.08667791  0.82425448  0.82554469    -0.00100
C1709       C  0.07099458  0.83878505  0.82341409    -0.03800
C1710       C  0.06369213  0.84817438  0.85042321     0.03300
C1711       C  0.09302881  0.81971933  0.91255157     0.10100
C1712       C  0.11075965  0.80396145  0.85664356     0.36000
C1713       C  0.04892952  0.86441510  0.84829583     0.39400
C1714       C  0.08611764  0.80075039  0.92315971    -0.04100
C1715       C  0.09178238  0.79360646  0.95255808     0.03000
C1716       C  0.10428077  0.80555254  0.97190696    -0.03700
C1717       C  0.11107752  0.82470844  0.96112103     0.00000
C1718       C  0.10564921  0.83158777  0.93147210    -0.02500
C1719       C  0.07292371  0.78865527  0.90376115     0.36700
C1720       C  0.12406830  0.83734521  0.98003818     0.40400
C1721       C  0.08413245  0.77417574  0.96296395     0.39500
C1722       C  0.11322656  0.85086602  0.92026540     0.36400
C1723       C  0.06337931  0.85167864  0.90716633     0.37100
C1724       C  0.09430623  0.81449274  0.79797705     0.40300
N1725       N  0.07799974  0.75863983  0.97104972    -0.37700
N1726       N  0.06247203  0.77907449  0.88810945    -0.39300
N1727       N  0.13436583  0.84746608  0.99513949    -0.37100
N1728       N  0.11930270  0.86625771  0.91148133    -0.39400
N1729       N  0.12374037  0.79222578  0.85823634    -0.39200
N1730       N  0.10030252  0.80671639  0.77592398    -0.36800
N1731       N  0.03727362  0.87745252  0.84649759    -0.37900
N1732       N  0.05720254  0.85922414  0.92928570    -0.39600
C1733       C  0.92935615  0.80832803  0.64805899    -0.04500
C1734       C  0.93197510  0.82946877  0.65000749     0.09700
C1735       C  0.91794193  0.84245129  0.63538518    -0.01900
C1736       C  0.90175378  0.83433082  0.61799604    -0.00100
C1737       C  0.89937436  0.81311524  0.61544953    -0.03800
C1738       C  0.91293781  0.80018328  0.63138486     0.03300
C1739       C  0.95062126  0.83777759  0.66516780     0.10100
C1740       C  0.92074486  0.86417830  0.63708894     0.36000
C1741       C  0.91004053  0.77840373  0.63074807     0.39400
C1742       C  0.96752893  0.84302027  0.64696521    -0.04100
C1743       C  0.98611488  0.84826629  0.66095871     0.03000
C1744       C  0.98797410  0.84842883  0.69353773    -0.03700
C1745       C  0.97065823  0.84389507  0.71171297     0.00000
C1746       C  0.95208848  0.83867662  0.69752273    -0.02500
C1747       C  0.96589380  0.84237011  0.61365087     0.36700
C1748       C  0.97180674  0.84455359  0.74505550     0.40400
C1749       C  0.00352550  0.85232995  0.64143436     0.39500
C1750       C  0.93446207  0.83400825  0.71623927     0.36400
C1751       C  0.94425492  0.79491828  0.66184659     0.37100
C1752       C  0.88836074  0.84784302  0.60124024     0.40300
N1753       N  0.01732687  0.85549896  0.62568934    -0.37700
N1754       N  0.96444327  0.84188089  0.58709345    -0.39300
N1755       N  0.97277760  0.84496936  0.77167201    -0.37100
N1756       N  0.92043399  0.83033964  0.73124827    -0.39400
N1757       N  0.92303924  0.88151448  0.63826299    -0.39200
N1758       N  0.87768230  0.85860089  0.58779012    -0.36800
N1759       N  0.90769403  0.76105373  0.63029231    -0.37900
N1760       N  0.95627115  0.78425531  0.67258141    -0.39600
C1761       C  0.07322263  0.63682855  0.44003212    -0.04500
C1762       C  0.08042872  0.64375967  0.41133981     0.09700
C1763       C  0.09618488  0.65819442  0.41015429    -0.01900
C1764       C  0.10475407  0.66567564  0.43761535    -0.00100
C1765       C  0.09819519  0.65806821  0.46637528    -0.03800
C1766       C  0.08236926  0.64361034  0.46747680     0.03300
C1767       C  0.07200958  0.63528129  0.38216685     0.10100
C1768       C  0.10397261  0.66481729  0.38053680     0.36000
C1769       C  0.07533082  0.63581503  0.49686405     0.39400
C1770       C  0.05872967  0.64692663  0.36391143    -0.04100
C1771       C  0.05213698  0.63962124  0.33515420     0.03000
C1772       C  0.05830607  0.62025018  0.32484967    -0.03700
C1773       C  0.07147784  0.60849297  0.34349559     0.00000
C1774       C  0.07816468  0.61596829  0.37212160    -0.02500
C1775       C  0.05190623  0.66651414  0.37478554     0.36700
C1776       C  0.07836361  0.58872627  0.33343615     0.40400
C1777       C  0.04009381  0.65269013  0.31542434     0.39500
C1778       C  0.09145664  0.60381560  0.39136201     0.36400
C1779       C  0.05643819  0.62264172  0.44112083     0.37100
C1780       C  0.12088154  0.68056692  0.43612361     0.40300
N1781       N  0.03064903  0.66317622  0.29955817    -0.37700
N1782       N  0.04642533  0.68210586  0.38352031    -0.39300
N1783       N  0.08414535  0.57303906  0.32556923    -0.37100
N1784       N  0.10190400  0.59412406  0.40693544    -0.39400
N1785       N  0.11010878  0.66991160  0.35678733    -0.39200
N1786       N  0.13370755  0.69249695  0.43476446    -0.36800
N1787       N  0.06976464  0.62951199  0.52026974    -0.37900
N1788       N  0.04301695  0.61135251  0.44169076    -0.39600
C1789       C  0.22519596  0.68138263  0.53092088    -0.04500
C1790       C  0.23227581  0.66400771  0.51556129     0.09700
C1791       C  0.21897916  0.64773926  0.50978653    -0.01900
C1792       C  0.19841680  0.64910105  0.51851792    -0.00100
C1793       C  0.19116377  0.66677020  0.53310222    -0.03800
C1794       C  0.20469273  0.68279439  0.53962664     0.03300
C1795       C  0.25365036  0.66332167  0.50443563     0.10100
C1796       C  0.22646741  0.62977461  0.49440704     0.36000
C1797       C  0.19757055  0.70072002  0.55555455     0.39400
C1798       C  0.26949784  0.65883978  0.52513261    -0.04100
C1799       C  0.28978794  0.65961774  0.51512490     0.03000
C1800       C  0.29432124  0.66510802  0.48438579    -0.03700
C1801       C  0.27840513  0.66939729  0.46357855     0.00000
C1802       C  0.25809650  0.66851653  0.47363147    -0.02500
C1803       C  0.26491229  0.65420415  0.55705827     0.36700
C1804       C  0.28291110  0.67605879  0.43245586     0.40400
C1805       C  0.30600568  0.65477602  0.53653448     0.39500
C1806       C  0.24175387  0.67394341  0.45280047     0.36400
C1807       C  0.23904756  0.69790174  0.53740381     0.37100
C1808       C  0.18456845  0.63279420  0.51098316     0.40300
N1809       N  0.31894723  0.65093619  0.55360466    -0.37700
N1810       N  0.26125737  0.65074283  0.58258908    -0.39300
N1811       N  0.28647062  0.68151263  0.40770060    -0.37100
N1812       N  0.22863494  0.67836186  0.43638341    -0.39400
N1813       N  0.23252035  0.61548506  0.48211104    -0.39200
N1814       N  0.17355053  0.61978611  0.50479614    -0.36800
N1815       N  0.19188144  0.71501399  0.56823553    -0.37900
N1816       N  0.25021933  0.71096341  0.54261431    -0.39600
C1817       C  0.12259981  0.77104778  0.59916106    -0.04500
C1818       C  0.11606630  0.77067758  0.63008714     0.09700
C1819       C  0.11610610  0.75223631  0.64648451    -0.01900
C1820       C  0.12128951  0.73405196  0.63149789    -0.00100
C1821       C  0.12576525  0.73408061  0.59956874    -0.03800
C1822       C  0.12723526  0.75279921  0.58381649     0.03300
C1823       C  0.10576249  0.78872197  0.64381205     0.10100
C1824       C  0.10944251  0.75181701  0.67833328     0.36000
C1825       C  0.13353137  0.75332144  0.55182477     0.39400
C1826       C  0.08510964  0.79209414  0.63692968    -0.04100
C1827       C  0.07408481  0.80701569  0.65282749     0.03000
C1828       C  0.08371811  0.81901638  0.67538446    -0.03700
C1829       C  0.10466636  0.81636672  0.68120713     0.00000
C1830       C  0.11563274  0.80112560  0.66561089    -0.02500
C1831       C  0.07500343  0.77964955  0.61409574     0.36700
C1832       C  0.11462927  0.82850920  0.70453812     0.40400
C1833       C  0.05271674  0.80982696  0.64601313     0.39500
C1834       C  0.13686967  0.79781065  0.67266524     0.36400
C1835       C  0.12377941  0.79018715  0.58288166     0.37100
C1836       C  0.12078425  0.71522907  0.64875778     0.40300
N1837       N  0.03566922  0.81181868  0.64042568    -0.37700
N1838       N  0.06703468  0.76972382  0.59580385    -0.39300
N1839       N  0.12242910  0.83826181  0.72322173    -0.37100
N1840       N  0.15380762  0.79526600  0.67852661    -0.39400
N1841       N  0.10400604  0.75151202  0.70366544    -0.39200
N1842       N  0.12047890  0.70024267  0.66258619    -0.36800
N1843       N  0.13858541  0.75368961  0.52630790    -0.37900
N1844       N  0.12477841  0.80547213  0.56992456    -0.39600
C1845       C  0.03325429  0.61302120  0.69095313    -0.04500
C1846       C  0.03489273  0.61622040  0.65899938     0.09700
C1847       C  0.01835005  0.61176625  0.63959044    -0.01900
C1848       C  0.99969068  0.60549560  0.65229538    -0.00100
C1849       C  0.99743509  0.60392572  0.68469599    -0.03800
C1850       C  0.01461853  0.60688419  0.70382512     0.03300
C1851       C  0.05337421  0.62605555  0.64595657     0.10100
C1852       C  0.02033288  0.61450936  0.60655057     0.36000
C1853       C  0.01322089  0.60372930  0.73684665     0.39400
C1854       C  0.06881172  0.61434752  0.63237089    -0.04100
C1855       C  0.08516921  0.62391353  0.61724329     0.03000
C1856       C  0.08612529  0.64528139  0.61581448    -0.03700
C1857       C  0.07133171  0.65691624  0.63138532     0.00000
C1858       C  0.05484581  0.64733302  0.64595331    -0.02500
C1859       C  0.06736749  0.59246347  0.63295967     0.36700
C1860       C  0.07302435  0.67880614  0.63248517     0.40400
C1861       C  0.10026527  0.61172719  0.60163891     0.39500
C1862       C  0.03887485  0.65937455  0.65981854     0.36400
C1863       C  0.05066740  0.61659544  0.71063666     0.37100
C1864       C  0.98265105  0.60182375  0.63188296     0.40300
N1865       N  0.11230355  0.60199181  0.58915394    -0.37700
N1866       N  0.06613199  0.57500355  0.63339618    -0.39300
N1867       N  0.07434947  0.69625048  0.63346644    -0.37100
N1868       N  0.02603626  0.66892428  0.67070503    -0.39400
N1869       N  0.02193894  0.61670621  0.58021667    -0.39200
N1870       N  0.96912903  0.59885621  0.61548632    -0.36800
N1871       N  0.01209677  0.60126314  0.76318603    -0.37900
N1872       N  0.06456196  0.61941379  0.72634931    -0.39600
C1873       C  0.88601502  0.35134169  0.66799717    -0.04500
C1874       C  0.89631696  0.33571131  0.65241389     0.09700
C1875       C  0.91344343  0.32657967  0.66614391    -0.01900
C1876       C  0.92029988  0.33308700  0.69524575    -0.00100
C1877       C  0.91014136  0.34892342  0.71079238    -0.03800
C1878       C  0.89293881  0.35801872  0.69698420     0.03300
C1879       C  0.88867076  0.32836111  0.62195214     0.10100
C1880       C  0.92380378  0.31017707  0.65053431     0.36000
C1881       C  0.88256297  0.37458561  0.71218232     0.39400
C1882       C  0.89195542  0.33984770  0.59499710    -0.04100
C1883       C  0.88468846  0.33287989  0.56633827     0.03000
C1884       C  0.87445943  0.31404332  0.56428217    -0.03700
C1885       C  0.87086493  0.30278713  0.59156854     0.00000
C1886       C  0.87781412  0.31002667  0.62023052    -0.02500
C1887       C  0.90288215  0.35886767  0.59680322     0.36700
C1888       C  0.85926048  0.28415662  0.59056660     0.40400
C1889       C  0.88807196  0.34512478  0.53902037     0.39500
C1890       C  0.87347478  0.29881923  0.64825231     0.36400
C1891       C  0.86804758  0.36030924  0.65432381     0.37100
C1892       C  0.93728694  0.32281302  0.70971283     0.40300
N1893       N  0.89062365  0.35503135  0.51735844    -0.37700
N1894       N  0.91151830  0.37408575  0.59823585    -0.39300
N1895       N  0.84994838  0.26931337  0.58994458    -0.37100
N1896       N  0.87005785  0.29003651  0.67073684    -0.39400
N1897       N  0.93201179  0.29698669  0.63827682    -0.39200
N1898       N  0.95078710  0.31460103  0.72134282    -0.36800
N1899       N  0.87430397  0.38779424  0.72432564    -0.37900
N1900       N  0.85371296  0.36740211  0.64332271    -0.39600
C1901       C  0.92292492  0.51255580  0.79257009    -0.04500
C1902       C  0.92054203  0.49721206  0.77043599     0.09700
C1903       C  0.91869897  0.50237355  0.73902661    -0.01900
C1904       C  0.92044922  0.52273552  0.72954919    -0.00100
C1905       C  0.92418139  0.53809237  0.75152107    -0.03800
C1906       C  0.92472006  0.53292759  0.78324784     0.03300
C1907       C  0.92189871  0.47548291  0.77983506     0.10100
C1908       C  0.91560215  0.48658545  0.71637356     0.36000
C1909       C  0.92682115  0.54853070  0.80648824     0.39400
C1910       C  0.90423426  0.46399952  0.78531209    -0.04100
C1911       C  0.90573537  0.44310954  0.79189910     0.03000
C1912       C  0.92501409  0.43368922  0.79353174    -0.03700
C1913       C  0.94271157  0.44561580  0.78990423     0.00000
C1914       C  0.94112314  0.46634377  0.78274792    -0.02500
C1915       C  0.88453713  0.47372398  0.78403736     0.36700
C1916       C  0.96265125  0.43674227  0.79430347     0.40400
C1917       C  0.88737385  0.43127224  0.79572406     0.39500
C1918       C  0.95932824  0.47833702  0.77814991     0.36400
C1919       C  0.92385284  0.50724159  0.82498241     0.37100
C1920       C  0.91932548  0.52761025  0.69699077     0.40300
N1921       N  0.87270452  0.42185431  0.79877205    -0.37700
N1922       N  0.86881582  0.48150345  0.78321604    -0.39300
N1923       N  0.97855206  0.42970046  0.79795849    -0.37100
N1924       N  0.97381424  0.48794325  0.77452381    -0.39400
N1925       N  0.91308994  0.47398821  0.69829849    -0.39200
N1926       N  0.91837549  0.53149972  0.67103782    -0.36800
N1927       N  0.92847436  0.56095858  0.82506656    -0.37900
N1928       N  0.92454728  0.50293387  0.85079818    -0.39600
C1929       C  0.90628804  0.12722758  0.17909601    -0.04500
C1930       C  0.91813740  0.13955584  0.15969603     0.09700
C1931       C  0.93788265  0.14516144  0.16861315    -0.01900
C1932       C  0.94574523  0.13878698  0.19722856    -0.00100
C1933       C  0.93379908  0.12664920  0.21718434    -0.03800
C1934       C  0.91411488  0.12058473  0.20755576     0.03300
C1935       C  0.91016336  0.14587118  0.12901577     0.10100
C1936       C  0.95013209  0.15745589  0.14805177     0.36000
C1937       C  0.90207111  0.10675690  0.22610959     0.39400
C1938       C  0.90024189  0.16459830  0.12550261    -0.04100
C1939       C  0.89263939  0.17046066  0.09645932     0.03000
C1940       C  0.89527068  0.15768578  0.07058076    -0.03700
C1941       C  0.90543945  0.13894218  0.07431060     0.00000
C1942       C  0.91274048  0.13305950  0.10347361    -0.02500
C1943       C  0.89778760  0.17774529  0.15195880     0.36700
C1944       C  0.90882562  0.12576369  0.04812819     0.40400
C1945       C  0.88129233  0.18918092  0.09373678     0.39500
C1946       C  0.92300828  0.11380666  0.10742472     0.36400
C1947       C  0.88607161  0.12120664  0.16951809     0.37100
C1948       C  0.96602660  0.14503597  0.20597692     0.40300
N1949       N  0.87214759  0.20407857  0.09170210    -0.37700
N1950       N  0.89593501  0.18818692  0.17311726    -0.39300
N1951       N  0.91150445  0.11519990  0.02732084    -0.37100
N1952       N  0.93120237  0.09849037  0.11097279    -0.39400
N1953       N  0.95980588  0.16723458  0.13151028    -0.39200
N1954       N  0.98227752  0.15001909  0.21267855    -0.36800
N1955       N  0.89246201  0.09569458  0.24076564    -0.37900
N1956       N  0.86994803  0.11637962  0.16192641    -0.39600
C1957       C  0.76960114  0.16091037  0.99738444    -0.04500
C1958       C  0.76453571  0.16410951  0.02859393     0.09700
C1959       C  0.78012789  0.16629219  0.05057004    -0.01900
C1960       C  0.80063528  0.16600411  0.04123777    -0.00100
C1961       C  0.80569123  0.16457787  0.00957955    -0.03800
C1962       C  0.79004445  0.16154404  0.98776700     0.03300
C1963       C  0.74274282  0.16673315  0.03767158     0.10100
C1964       C  0.77502078  0.16941511  0.08268767     0.36000
C1965       C  0.79475797  0.16025129  0.95520226     0.39400
C1966       C  0.73197558  0.15100015  0.05236940    -0.04100
C1967       C  0.71095205  0.15302261  0.05814649     0.03000
C1968       C  0.70056489  0.17098179  0.04959142    -0.03700
C1969       C  0.71184607  0.18725287  0.03687322     0.00000
C1970       C  0.73277169  0.18508375  0.03094158    -0.02500
C1971       C  0.74262211  0.13281771  0.06181646     0.36700
C1972       C  0.70218739  0.20659077  0.03091068     0.40400
C1973       C  0.70006311  0.13630675  0.07217639     0.39500
C1974       C  0.74427053  0.20195751  0.01847666     0.36400
C1975       C  0.75365034  0.15735539  0.97502026     0.37100
C1976       C  0.81650666  0.16678270  0.06440995     0.40300
N1977       N  0.69147595  0.12295166  0.08347809    -0.37700
N1978       N  0.75119399  0.11844923  0.06980847    -0.39300
N1979       N  0.69452498  0.22206437  0.02630358    -0.37100
N1980       N  0.75352284  0.21540398  0.00875438    -0.39400
N1981       N  0.77091311  0.17192499  0.10830643    -0.39200
N1982       N  0.82914228  0.16722972  0.08291010    -0.36800
N1983       N  0.79853701  0.15933730  0.92920991    -0.37900
N1984       N  0.74095029  0.15441566  0.95718248    -0.39600
C1985       C  0.87519340  0.25625117  0.89435917    -0.04500
C1986       C  0.88071119  0.27277862  0.91301341     0.09700
C1987       C  0.88050632  0.27073875  0.94525623    -0.01900
C1988       C  0.87549010  0.25201178  0.95891630    -0.00100
C1989       C  0.87161271  0.23479594  0.94030147    -0.03800
C1990       C  0.87080556  0.23728147  0.90781711     0.03300
C1991       C  0.88854489  0.29172113  0.89839770     0.10100
C1992       C  0.88621198  0.28782762  0.96430444     0.36000
C1993       C  0.86635834  0.22029479  0.88781199     0.39400
C1994       C  0.87510773  0.30657042  0.88699960    -0.04100
C1995       C  0.88268187  0.32329484  0.87022555     0.03000
C1996       C  0.90368805  0.32476158  0.86395966    -0.03700
C1997       C  0.91715743  0.31035579  0.87683199     0.00000
C1998       C  0.90961684  0.29413276  0.89441974    -0.02500
C1999       C  0.85347947  0.30430366  0.89200882     0.36700
C2000       C  0.93888648  0.31204051  0.87183229     0.40400
C2001       C  0.86877121  0.33839749  0.85834655     0.39500
C2002       C  0.92355220  0.27970629  0.90816380     0.36400
C2003       C  0.87484679  0.25867685  0.86112609     0.37100
C2004       C  0.87391571  0.25075007  0.99217153     0.40300
N2005       N  0.85761961  0.35048798  0.84905277    -0.37700
N2006       N  0.83623421  0.30236993  0.89603044    -0.39300
N2007       N  0.95618122  0.31319376  0.86763230    -0.37100
N2008       N  0.93468416  0.26833742  0.91940345    -0.39400
N2009       N  0.89098101  0.30146634  0.97930220    -0.39200
N2010       N  0.87251050  0.24989673  0.01871771    -0.36800
N2011       N  0.86280159  0.20687670  0.87162019    -0.37900
N2012       N  0.87457034  0.26079210  0.83465672    -0.39600
C2013       C  0.09407856  0.13577739  0.58501674    -0.04500
C2014       C  0.09689835  0.14499820  0.61394686     0.09700
C2015       C  0.10786777  0.16327344  0.61606042    -0.01900
C2016       C  0.11598786  0.17234085  0.58934265    -0.00100
C2017       C  0.11294430  0.16327750  0.56022568    -0.03800
C2018       C  0.10190900  0.14494825  0.55820329     0.03300
C2019       C  0.08830071  0.13541472  0.64232393     0.10100
C2020       C  0.11100689  0.17261157  0.64589641     0.36000
C2021       C  0.09818038  0.13565182  0.52846225     0.39400
C2022       C  0.10094635  0.12431252  0.66222728    -0.04100
C2023       C  0.09313246  0.11602318  0.68975776     0.03000
C2024       C  0.07217636  0.11820030  0.69732217    -0.03700
C2025       C  0.05945536  0.12901057  0.67643038     0.00000
C2026       C  0.06758910  0.13763171  0.64932542    -0.02500
C2027       C  0.12209498  0.12130270  0.65407708     0.36700
C2028       C  0.03798349  0.13168443  0.68246541     0.40400
C2029       C  0.10712088  0.10552767  0.71010285     0.39500
C2030       C  0.05463054  0.14895410  0.62842016     0.36400
C2031       C  0.08330543  0.11669480  0.58297799     0.37100
C2032       C  0.12829423  0.19044177  0.59211126     0.40300
N2033       N  0.11845604  0.09732406  0.72620024    -0.37700
N2034       N  0.13892788  0.11885133  0.64745061    -0.39300
N2035       N  0.02081781  0.13390869  0.68701990    -0.37100
N2036       N  0.04441333  0.15793280  0.61158121    -0.39400
N2037       N  0.11357494  0.17999820  0.66970247    -0.39200
N2038       N  0.13822124  0.20481514  0.59437936    -0.36800
N2039       N  0.09519705  0.12823706  0.50478175    -0.37900
N2040       N  0.07474184  0.10143982  0.58140077    -0.39600
C2041       C  0.05558712  0.99963930  0.74410719    -0.04500
C2042       C  0.05803689  0.98700570  0.77000334     0.09700
C2043       C  0.06007874  0.99561418  0.79951609    -0.01900
C2044       C  0.05886469  0.01681115  0.80329513    -0.00100
C2045       C  0.05605575  0.02957875  0.77735129    -0.03800
C2046       C  0.05496206  0.02081495  0.74763083     0.03300
C2047       C  0.05691640  0.96456382  0.76609754     0.10100
C2048       C  0.06299510  0.98253513  0.82602638     0.36000
C2049       C  0.05369041  0.03351262  0.72039308     0.39400
C2050       C  0.07384994  0.95360992  0.75534957    -0.04100
C2051       C  0.07208452  0.93276203  0.74898013     0.03000
C2052       C  0.05320633  0.92282698  0.75262113    -0.03700
C2053       C  0.03639221  0.93379816  0.76420661     0.00000
C2054       C  0.03833237  0.95452967  0.77107492    -0.02500
C2055       C  0.09307218  0.96383309  0.75071224     0.36700
C2056       C  0.01684295  0.92404505  0.76825317     0.40400
C2057       C  0.08996229  0.92141777  0.73992501     0.39500
C2058       C  0.02103863  0.96571834  0.78279363     0.36400
C2059       C  0.05315769  0.99069453  0.71383271     0.37100
C2060       C  0.05952370  0.02526187  0.83406544     0.40300
N2061       N  0.10421690  0.91230713  0.73293721    -0.37700
N2062       N  0.10846355  0.97188868  0.74686398    -0.39300
N2063       N  0.00122379  0.91632421  0.77157978    -0.37100
N2064       N  0.00730624  0.97464378  0.79227200    -0.39400
N2065       N  0.06532916  0.97203218  0.84709258    -0.39200
N2066       N  0.05997761  0.03192750  0.85868117    -0.36800
N2067       N  0.05278178  0.04357280  0.69858898    -0.37900
N2068       N  0.05114420  0.98338603  0.68983496    -0.39600
C2069       C  0.96071932  0.09476707  0.85865081    -0.04500
C2070       C  0.95312934  0.11470925  0.85862251     0.09700
C2071       C  0.96272709  0.12967281  0.84057723    -0.01900
C2072       C  0.98043211  0.12500963  0.82379540    -0.00100
C2073       C  0.98869231  0.10525613  0.82496608    -0.03800
C2074       C  0.97843213  0.09002791  0.84184006     0.03300
C2075       C  0.93698526  0.12089556  0.88092583     0.10100
C2076       C  0.95497715  0.15022579  0.84087007     0.36000
C2077       C  0.98614444  0.06947318  0.84202668     0.39400
C2078       C  0.94276328  0.12714272  0.91062399    -0.04100
C2079       C  0.92846171  0.13594627  0.93057004     0.03000
C2080       C  0.90807591  0.13880182  0.92088531    -0.03700
C2081       C  0.90204509  0.13133534  0.89166869     0.00000
C2082       C  0.91652403  0.12250481  0.87172823    -0.02500
C2083       C  0.96380556  0.12528298  0.92018678     0.36700
C2084       C  0.88125488  0.13359756  0.88122808     0.40400
C2085       C  0.93499657  0.14217185  0.96103395     0.39500
C2086       C  0.91061838  0.11575639  0.84127750     0.36400
C2087       C  0.95071738  0.07936658  0.87699557     0.37100
C2088       C  0.99091446  0.14099074  0.80727784     0.40300
N2089       N  0.94031146  0.14726250  0.98522792    -0.37700
N2090       N  0.98058624  0.12385462  0.92767744    -0.39300
N2091       N  0.86470942  0.13531959  0.87272618    -0.37100
N2092       N  0.90593649  0.11040366  0.81692244    -0.39400
N2093       N  0.94871225  0.16657347  0.84141910    -0.39200
N2094       N  0.99927979  0.15381474  0.79425791    -0.36800
N2095       N  0.99233478  0.05309150  0.84209912    -0.37900
N2096       N  0.94274019  0.06710790  0.89172298    -0.39600
C2097       C  0.10358166  0.32499152  0.10509929    -0.04500
C2098       C  0.08653135  0.31597287  0.11905266     0.09700
C2099       C  0.07585981  0.30056256  0.10363816    -0.01900
C2100       C  0.08258855  0.29369966  0.07468568    -0.00100
C2101       C  0.09937326  0.30309571  0.06015358    -0.03800
C2102       C  0.10951390  0.31917481  0.07524928     0.03300
C2103       C  0.07944251  0.32323229  0.14970225     0.10100
C2104       C  0.05773865  0.29203954  0.11746621     0.36000
C2105       C  0.12608849  0.32981677  0.06032842     0.39400
C2106       C  0.06560200  0.33944376  0.15141889    -0.04100
C2107       C  0.05942216  0.34686149  0.18031678     0.03000
C2108       C  0.06732928  0.33827862  0.20765855    -0.03700
C2109       C  0.08089085  0.32175209  0.20585968     0.00000
C2110       C  0.08674982  0.31412193  0.17690444    -0.02500
C2111       C  0.05778400  0.34847493  0.12334236     0.36700
C2112       C  0.08832212  0.31219475  0.23376994     0.40400
C2113       C  0.04539153  0.36374974  0.18180123     0.39500
C2114       C  0.10009893  0.29672431  0.17496864     0.36400
C2115       C  0.11518456  0.34009410  0.12173618     0.37100
C2116       C  0.07173553  0.27741731  0.05953632     0.40300
N2117       N  0.03417207  0.37718605  0.18296676    -0.37700
N2118       N  0.05155735  0.35561663  0.10088256    -0.39300
N2119       N  0.09420929  0.30455249  0.25606234    -0.37100
N2120       N  0.11060806  0.28275401  0.17330411    -0.39400
N2121       N  0.04317664  0.28541968  0.12844574    -0.39200
N2122       N  0.06312182  0.26436038  0.04756462    -0.36800
N2123       N  0.13911763  0.33854650  0.04833999    -0.37900
N2124       N  0.12458587  0.35194784  0.13514830    -0.39600
C2125       C  0.25772891  0.27032200  0.02851912    -0.04500
C2126       C  0.24953239  0.28916466  0.01981412     0.09700
C2127       C  0.26164517  0.30672290  0.02136199    -0.01900
C2128       C  0.28206116  0.30540101  0.03108489    -0.00100
C2129       C  0.29052325  0.28636863  0.03903558    -0.03800
C2130       C  0.27804960  0.26890464  0.03824089     0.03300
C2131       C  0.22789039  0.29036597  0.00965473     0.10100
C2132       C  0.25323035  0.32605274  0.01194852     0.36000
C2133       C  0.28596325  0.24933589  0.04761503     0.39400
C2134       C  0.21278135  0.29589608  0.03096283    -0.04100
C2135       C  0.19213863  0.29481965  0.02265751     0.03000
C2136       C  0.18648751  0.28919131  0.99239317    -0.03700
C2137       C  0.20169199  0.28409384  0.97086114     0.00000
C2138       C  0.22230273  0.28421286  0.97970564    -0.02500
C2139       C  0.21851179  0.30183781  0.06193999     0.36700
C2140       C  0.19606264  0.27727754  0.94030427     0.40400
C2141       C  0.17679068  0.29878962  0.04576590     0.39500
C2142       C  0.23768250  0.27681887  0.95868441     0.36400
C2143       C  0.24526598  0.25225630  0.02682388     0.37100
C2144       C  0.29446769  0.32353217  0.03140143     0.40300
N2145       N  0.16477081  0.30155216  0.06470848    -0.37700
N2146       N  0.22315217  0.30657531  0.08658965    -0.39300
N2147       N  0.19153950  0.27176671  0.91598440    -0.37100
N2148       N  0.24992850  0.27052948  0.94218131    -0.39400
N2149       N  0.24655164  0.34145584  0.00430806    -0.39200
N2150       N  0.30428736  0.33805542  0.03159013    -0.36800
N2151       N  0.29225276  0.23370012  0.05490926    -0.37900
N2152       N  0.23534091  0.23785653  0.02513645    -0.39600
C2153       C  0.09328181  0.17264563  0.85281849    -0.04500
C2154       C  0.09747872  0.16814032  0.88391213     0.09700
C2155       C  0.09474471  0.14825293  0.89502143    -0.01900
C2156       C  0.08723533  0.13303353  0.87528093    -0.00100
C2157       C  0.08227388  0.13770238  0.84433340    -0.03800
C2158       C  0.08607875  0.15746138  0.83295567     0.03300
C2159       C  0.10376952  0.18486364  0.90496806     0.10100
C2160       C  0.09889508  0.14367452  0.92707418     0.36000
C2161       C  0.08288997  0.16225613  0.80067465     0.39400
C2162       C  0.08916615  0.19437606  0.92368227    -0.04100
C2163       C  0.09409939  0.21221220  0.93975305     0.03000
C2164       C  0.11355757  0.22109588  0.93628245    -0.03700
C2165       C  0.12842619  0.21101178  0.91849402     0.00000
C2166       C  0.12360530  0.19279214  0.90330461    -0.02500
C2167       C  0.06866283  0.18638608  0.92499766     0.36700
C2168       C  0.14871991  0.21933531  0.91564924     0.40400
C2169       C  0.07866109  0.22191679  0.95839950     0.39500
C2170       C  0.13884172  0.18243334  0.88513845     0.36400
C2171       C  0.09555615  0.19325041  0.84161543     0.37100
C2172       C  0.08377536  0.11284158  0.88735570     0.40300
N2173       N  0.06635142  0.22957732  0.97339370    -0.37700
N2174       N  0.05231513  0.18004338  0.92588619    -0.39300
N2175       N  0.16488224  0.22598055  0.91325140    -0.37100
N2176       N  0.15096499  0.17410279  0.87064405    -0.39400
N2177       N  0.10202181  0.13997698  0.95270958    -0.39200
N2178       N  0.08103901  0.09670904  0.89688010    -0.36800
N2179       N  0.08046842  0.16619564  0.77493978    -0.37900
N2180       N  0.09727812  0.20972616  0.83295388    -0.39600
C2181       C  0.06165241  0.34261415  0.89187759    -0.04500
C2182       C  0.04718654  0.33051598  0.87658116     0.09700
C2183       C  0.04947518  0.30930721  0.87641151    -0.01900
C2184       C  0.06568947  0.30017496  0.89246213    -0.00100
C2185       C  0.07965468  0.31219884  0.90917633    -0.03800
C2186       C  0.07783566  0.33351617  0.90815538     0.03300
C2187       C  0.02844878  0.33989729  0.86321042     0.10100
C2188       C  0.03461531  0.29683945  0.86070645     0.36000
C2189       C  0.09175475  0.34610063  0.92548566     0.39400
C2190       C  0.02672250  0.34333469  0.83125994    -0.04100
C2191       C  0.00863266  0.35141533  0.81885473     0.03000
C2192       C  0.99172308  0.35518301  0.83815900    -0.03700
C2193       C  0.99370164  0.35204047  0.87034646     0.00000
C2194       C  0.01204610  0.34464218  0.88273990    -0.02500
C2195       C  0.04340370  0.33804867  0.81105771     0.36700
C2196       C  0.97662992  0.35534945  0.89083290     0.40400
C2197       C  0.00769107  0.35638850  0.78632819     0.39500
C2198       C  0.01389208  0.34123515  0.91565699     0.36400
C2199       C  0.05931175  0.36442933  0.89193416     0.37100
C2200       C  0.06792493  0.27832741  0.89176707     0.40300
N2201       N  0.00695535  0.36055863  0.76044742    -0.37700
N2202       N  0.05659983  0.33362229  0.79485347    -0.39300
N2203       N  0.96304149  0.35783578  0.90726431    -0.37100
N2204       N  0.01547631  0.33852850  0.94188878    -0.39400
N2205       N  0.02271264  0.28693457  0.84821558    -0.39200
N2206       N  0.06969245  0.26091074  0.89118286    -0.36800
N2207       N  0.10279814  0.35617808  0.93938967    -0.37900
N2208       N  0.05733876  0.38182362  0.89206718    -0.39600
loop_ 
_geom_bond_atom_site_label_1 
_geom_bond_atom_site_label_2 
_geom_bond_distance 
_geom_bond_site_symmetry_2 
_ccdc_geom_bond_type 
O1            C4   1.266       .  A
O1           Cd6   2.447       .  S
C2           O11   1.266       .  A
C2            O7   1.267       .  A
C2         C2101   1.486       .  S
O3            C9   1.270       .  A
O3           Cd6   2.499       .  S
C4           O12   1.267       .  A
C4         C2164   1.489       .  S
C5           O10   1.270       .  A
C5            O8   1.263       .  A
C5         C2185   1.490       .  S
Cd6          O13   2.434   1_556  S
Cd6          O12   2.460       .  S
Cd6          O11   2.444   1_556  S
Cd6           O7   2.448   1_556  S
Cd6          O10   2.504       .  S
Cd6           O8   2.430       .  S
C9           O13   1.262   1_556  A
C9         C2136   1.485       .  S
O14          C17   1.267       .  A
O14         Cd19   2.480       .  S
C15          O24   1.264       .  A
C15          O20   1.267       .  A
C15        C2024   1.509       .  S
O16          C22   1.268       .  A
O16         Cd19   2.489       .  S
C17          O25   1.266       .  A
C17        C2073   1.489   1_455  S
C18          O23   1.267       .  A
C18          O21   1.266       .  A
C18        C2045   1.493       .  S
Cd19         O26   2.428       .  S
Cd19         O25   2.462       .  S
Cd19         O24   2.445       .  S
Cd19         O20   2.477       .  S
Cd19         O23   2.487       .  S
Cd19         O21   2.452       .  S
C22          O26   1.263       .  A
C22        C2157   1.490       .  S
O27          C30   1.267       .  A
O27         Cd32   2.471   1_554  S
C28          O37   1.266       .  A
C28          O33   1.266       .  A
C28        C1989   1.499       .  S
O29          C35   1.269       .  A
O29         Cd32   2.511       .  S
C30          O38   1.265       .  A
C30        C1940   1.489       .  S
C31          O36   1.269       .  A
C31          O34   1.264   1_556  A
C31        C1961   1.491   1_556  S
Cd32         O39   2.421       .  S
Cd32         O38   2.442   1_556  S
Cd32         O37   2.483       .  S
Cd32         O33   2.460       .  S
Cd32         O36   2.484       .  S
Cd32         O34   2.436   1_556  S
C35          O39   1.263       .  A
C35        C2080   1.496       .  S
O40          C43   1.266       .  A
O40         Cd45   2.463       .  S
C41          O50   1.266       .  A
C41          O46   1.266       .  A
C41        C1877   1.487       .  S
O42          C48   1.269       .  A
O42         Cd45   2.502       .  S
C43          O51   1.266       .  A
C43        C2192   1.494       .  S
C44          O49   1.268       .  A
C44          O47   1.264       .  A
C44        C1912   1.489       .  S
Cd45         O52   2.404       .  S
Cd45         O51   2.465       .  S
Cd45         O50   2.457       .  S
Cd45         O46   2.455       .  S
Cd45         O49   2.486       .  S
Cd45         O47   2.430       .  S
C48          O52   1.263       .  A
C48        C1996   1.484       .  S
O53          C56   1.268       .  A
O53         Cd58   2.482       .  S
C54          O63   1.266       .  A
C54          O59   1.269       .  A
C54        C1821   1.492       .  S
O55          C61   1.269       .  A
O55         Cd58   2.488       .  S
C56          O64   1.264       .  A
C56        C1765   1.483       .  S
C57          O62   1.268       .  A
C57          O60   1.264       .  A
C57        C1793   1.479       .  S
Cd58         O65   2.415       .  S
Cd58         O64   2.447       .  S
Cd58         O63   2.451       .  S
Cd58         O59   2.473       .  S
Cd58         O62   2.478       .  S
Cd58         O60   2.423       .  S
C61          O65   1.264       .  A
C61        C1856   1.485       .  S
O66          C69   1.268       .  A
O66         Cd71   2.465       .  S
C67          O76   1.263       .  A
C67          O72   1.268       .  A
C67        C1709   1.482       .  S
O68          C74   1.269       .  A
O68         Cd71   2.479       .  S
C69          O77   1.267       .  A
C69        C1744   1.497   1_455  S
C70          O75   1.269       .  A
C70          O73   1.263       .  A
C70        C2052   1.488       .  S
Cd71         O78   2.433       .  S
Cd71         O77   2.456       .  S
Cd71         O76   2.433       .  S
Cd71         O72   2.465       .  S
Cd71         O75   2.473       .  S
Cd71         O73   2.429       .  S
C74          O78   1.265       .  A
C74        C1828   1.484       .  S
O79          C82   1.267       .  A
O79         Cd84   2.447       .  S
C80          O89   1.266       .  A
C80          O85   1.268       .  A
C80        C1681   1.485       .  S
O81          C87   1.270       .  A
O81         Cd84   2.492       .  S
C82          O90   1.264       .  A
C82        C1625   1.486       .  S
C83          O88   1.269       .  A
C83          O86   1.264       .  A
C83        C1653   1.495       .  S
Cd84         O91   2.425       .  S
Cd84         O90   2.461       .  S
Cd84         O89   2.430       .  S
Cd84         O85   2.473       .  S
Cd84         O88   2.495       .  S
Cd84         O86   2.446       .  S
C87          O91   1.263       .  A
C87        C1737   1.490       .  S
O92          C95   1.264       .  A
O92         Cd97   2.433       .  S
C93         O102   1.265       .  A
C93          O98   1.266       .  A
C93        C1597   1.486       .  S
O94         C100   1.268       .  A
O94         Cd97   2.510       .  S
C95         O103   1.266       .  A
C95        C1849   1.490       .  S
C96         O101   1.268       .  A
C96          O99   1.265       .  A
C96        C1905   1.491       .  S
Cd97        O104   2.409       .  S
Cd97        O103   2.471       .  S
Cd97        O102   2.424       .  S
Cd97         O98   2.462       .  S
Cd97        O101   2.474       .  S
Cd97         O99   2.440       .  S
C100        O104   1.261       .  A
C100       C1688   1.494       .  S
O105        C108   1.267       .  A
O105       Cd110   2.455       .  S
C106        O115   1.267       .  A
C106        O111   1.264       .  A
C106       C1576   1.488       .  S
O107        C113   1.268       .  A
O107       Cd110   2.486       .  S
C108        O116   1.265       .  A
C108       C1485   1.485       .  S
C109        O114   1.268       .  A
C109        O112   1.264       .  A
C109       C1548   1.486       .  S
Cd110       O117   2.419       .  S
Cd110       O116   2.433       .  S
Cd110       O115   2.478       .  S
Cd110       O111   2.455       .  S
Cd110       O114   2.495       .  S
Cd110       O112   2.420       .  S
C113        O117   1.263       .  A
C113       C1520   1.485       .  S
O118        C121   1.269       .  A
O118       Cd123   2.484       .  S
C119        O128   1.266       .  A
C119        O124   1.269       .  A
C119       C1457   1.494       .  S
O120        C126   1.270       .  A
O120       Cd123   2.498       .  S
C121        O129   1.264       .  A
C121       C1429   1.487       .  S
C122        O127   1.269       .  A
C122        O125   1.265       .  A
C122       C1660   1.486       .  S
Cd123       O130   2.404       .  S
Cd123       O129   2.437       .  S
Cd123       O128   2.443       .  S
Cd123       O124   2.473       .  S
Cd123       O127   2.473       .  S
Cd123       O125   2.432       .  S
C126        O130   1.263       .  A
C126       C1569   1.494       .  S
O131        C134   1.266       .  A
O131       Cd136   2.450       .  S
C132        O141   1.265       .  A
C132        O137   1.265       .  A
C132       C1541   1.482       .  S
O133        C139   1.269       .  A
O133       Cd136   2.493       .  S
C134        O142   1.266       .  A
C134       C1373   1.479       .  S
C135        O140   1.268       .  A
C135        O138   1.263       .  A
C135       C1800   1.479       .  S
Cd136       O143   2.415       .  S
Cd136       O142   2.435       .  S
Cd136       O141   2.441       .  S
Cd136       O137   2.429       .  S
Cd136       O140   2.477       .  S
Cd136       O138   2.420       .  S
C139        O143   1.262       .  A
C139       C1401   1.486       .  S
O144        C147   1.266       .  A
O144       Cd149   2.469       .  S
C145        O154   1.265       .  A
C145        O150   1.266       .  A
C145       C1317   1.484       .  S
O146        C152   1.269       .  A
O146       Cd149   2.498       .  S
C147        O155   1.265       .  A
C147       C1408   1.494       .  S
C148        O153   1.267       .  A
C148        O151   1.263       .  A
C148       C1345   1.490       .  S
Cd149       O156   2.430       .  S
Cd149       O155   2.461       .  S
Cd149       O154   2.447       .  S
Cd149       O150   2.469       .  S
Cd149       O153   2.495       .  S
Cd149       O151   2.440       .  S
C152        O156   1.264       .  A
C152       C1464   1.492       .  S
O157        C160   1.265   1_554  A
O157       Cd162   2.462       .  S
C158        O167   1.266       .  A
C158        O163   1.265       .  A
C158       C1261   1.489       .  S
O159        C165   1.263       .  A
O159       Cd162   2.452       .  S
C160        O168   1.264   1_556  A
C160       C1233   1.480       .  S
C161        O166   1.267       .  A
C161        O164   1.263       .  A
C161       C2129   1.490       .  S
Cd162       O169   2.466       .  S
Cd162       O168   2.453       .  S
Cd162       O167   2.460       .  S
Cd162       O163   2.453       .  S
Cd162       O166   2.492       .  S
Cd162       O164   2.419       .  S
C165        O169   1.264       .  A
C165       C1296   1.487       .  S
O170        C173   1.264       .  A
O170       Cd175   2.417       .  S
C171        O180   1.265       .  A
C171        O176   1.262       .  A
C171       C1177   1.482       .  S
O172        C178   1.266       .  A
O172       Cd175   2.491       .  S
C173        O181   1.268       .  A
C173       C1289   1.488       .  S
C174        O179   1.266       .  A
C174        O177   1.262       .  A
C174       C1352   1.475       .  S
Cd175       O182   2.436       .  S
Cd175       O181   2.466       .  S
Cd175       O180   2.447       .  S
Cd175       O176   2.446       .  S
Cd175       O179   2.466       .  S
Cd175       O177   2.428       .  S
C178        O182   1.264       .  A
C178       C1212   1.486       .  S
O183        C186   1.264       .  A
O183       Cd188   2.480       .  S
C184        O193   1.263       .  A
C184        O189   1.266       .  A
C184       C1121   1.481       .  S
O185        C191   1.267       .  A
O185       Cd188   2.475       .  S
C186        O194   1.265       .  A
C186       C1156   1.483       .  S
C187        O192   1.265       .  A
C187        O190   1.264       .  A
C187       C1513   1.487       .  S
Cd188       O195   2.424       .  S
Cd188       O194   2.472       .  S
Cd188       O193   2.437       .  S
Cd188       O189   2.470       .  S
Cd188       O192   2.482       .  S
Cd188       O190   2.441       .  S
C191        O195   1.265       .  A
C191       C1268   1.498       .  S
O196        C199   1.267   1_554  A
O196       Cd201   2.471       .  S
C197        O206   1.264       .  A
C197        O202   1.264       .  A
C197       C1205   1.496       .  S
O198        C204   1.267       .  A
O198       Cd201   2.512       .  S
C199        O207   1.266   1_556  A
C199       C1100   1.488       .  S
C200        O205   1.267       .  A
C200        O203   1.265       .  A
C200       C1968   1.498       .  S
Cd201       O208   2.445       .  S
Cd201       O207   2.458       .  S
Cd201       O206   2.494       .  S
Cd201       O202   2.481       .  S
Cd201       O205   2.497       .  S
Cd201       O203   2.464       .  S
C204        O208   1.262       .  A
C204       C1149   1.489       .  S
O209        C212   1.269       .  A
O209       Cd214   2.460       .  S
C210        O219   1.263       .  A
C210        O215   1.267       .  A
C210       C1184   1.485       .  S
O211        C217   1.269       .  A
O211       Cd214   2.479       .  S
C212        O220   1.266       .  A
C212       C1065   1.486       .  S
C213        O218   1.267       .  A
C213        O216   1.264       .  A
C213       C1009   1.483       .  S
Cd214       O221   2.418       .  S
Cd214       O220   2.450       .  S
Cd214       O219   2.438       .  S
Cd214       O215   2.483       .  S
Cd214       O218   2.474       .  S
Cd214       O216   2.435       .  S
C217        O221   1.264       .  A
C217       C1037   1.488       .  S
O222        C225   1.264       .  A
O222       Cd227   2.438       .  S
C223        O232   1.266       .  A
C223        O228   1.265       .  A
C223        C988   1.483       .  S
O224        C230   1.266       .  A
O224       Cd227   2.475       .  S
C225        O233   1.266       .  A
C225       C1093   1.484       .  S
C226        O231   1.265       .  A
C226        O229   1.263       .  A
C226        C953   1.473       .  S
Cd227       O234   2.418       .  S
Cd227       O233   2.479       .  S
Cd227       O232   2.461       .  S
Cd227       O228   2.432       .  S
Cd227       O231   2.468       .  S
Cd227       O229   2.409       .  S
C230        O234   1.263       .  A
C230       C1072   1.482       .  S
O235        C238   1.267       .  A
O235       Cd240   2.459       .  S
C236        O245   1.264       .  A
C236        O241   1.266       .  A
C236       C1240   1.489       .  S
O237        C243   1.268       .  A
O237       Cd240   2.484       .  S
C238        O246   1.266       .  A
C238       C1044   1.481       .  S
C239        O244   1.268       .  A
C239        O242   1.262       .  A
C239        C925   1.483       .  S
Cd240       O247   2.458       .  S
Cd240       O246   2.448       .  S
Cd240       O245   2.439       .  S
Cd240       O241   2.471       .  S
Cd240       O244   2.504       .  S
Cd240       O242   2.434       .  S
C243        O247   1.265       .  A
C243        C897   1.493       .  S
O248        C251   1.266       .  A
O248       Cd253   2.451       .  S
C249        O258   1.266       .  A
C249        O254   1.265       .  A
C249        C932   1.486       .  S
O250        C256   1.267       .  A
O250       Cd253   2.491       .  S
C251        O259   1.265       .  A
C251       C1128   1.490       .  S
C252        O257   1.269       .  A
C252        O255   1.264       .  A
C252        C981   1.488       .  S
Cd253       O260   2.440       .  S
Cd253       O259   2.441       .  S
Cd253       O258   2.467       .  S
Cd253       O254   2.453       .  S
Cd253       O257   2.489       .  S
Cd253       O255   2.420       .  S
C256        O260   1.263       .  A
C256        C869   1.490       .  S
O261        C264   1.266       .  A
O261       Cd266   2.435       .  S
C262        O271   1.265       .  A
C262        O267   1.268       .  A
C262       C1716   1.494   1_554  S
O263        C269   1.271       .  A
O263       Cd266   2.499       .  S
C264        O272   1.266       .  A
C264        C813   1.480       .  S
C265        O270   1.271       .  A
C265        O268   1.263       .  A
C265        C785   1.481       .  S
Cd266       O273   2.400       .  S
Cd266       O272   2.470       .  S
Cd266       O271   2.434       .  S
Cd266       O267   2.467       .  S
Cd266       O270   2.485       .  S
Cd266       O268   2.402       .  S
C269        O273   1.263       .  A
C269        C841   1.487       .  S
O274        C277   1.268       .  A
O274       Cd279   2.450       .  S
C275        O284   1.266       .  A
C275        O280   1.265       .  A
C275        C757   1.493   1_455  S
O276        C282   1.268       .  A
O276       Cd279   2.494       .  S
C277        O285   1.265       .  A
C277       C1772   1.487       .  S
C278        O283   1.266       .  A
C278        O281   1.265       .  A
C278        C729   1.482       .  S
Cd279       O286   2.422       .  S
Cd279       O285   2.444       .  S
Cd279       O284   2.477       .  S
Cd279       O280   2.473       .  S
Cd279       O283   2.456       .  S
Cd279       O281   2.442       .  S
C282        O286   1.262       .  A
C282        C820   1.485       .  S
O287        C290   1.265       .  A
O287       Cd292   2.455       .  S
C288        O297   1.266       .  A
C288        O293   1.264       .  A
C288        C848   1.486       .  S
O289        C295   1.268       .  A
O289       Cd292   2.494       .  S
C290        O298   1.265       .  A
C290       C1632   1.488       .  S
C291        O296   1.267       .  A
C291        O294   1.263       .  A
C291        C680   1.492       .  S
Cd292       O299   2.438       .  S
Cd292       O298   2.439       .  S
Cd292       O297   2.463       .  S
Cd292       O293   2.456       .  S
Cd292       O296   2.499       .  S
Cd292       O294   2.439       .  S
C295        O299   1.263       .  A
C295        C701   1.489       .  S
O300        C303   1.268       .  A
O300       Cd305   2.473   1_556  S
C301        O310   1.266       .  A
C301        O306   1.266       .  A
C301        C708   1.484       .  S
O302        C308   1.269       .  A
O302       Cd305   2.475       .  S
C303        O311   1.264       .  A
C303       C1604   1.497       .  S
C304        O309   1.269       .  A
C304        O307   1.262       .  A
C304        C764   1.495       .  S
Cd305       O312   2.452       .  S
Cd305       O311   2.432   1_554  S
Cd305       O310   2.470       .  S
Cd305       O306   2.470       .  S
Cd305       O309   2.514       .  S
Cd305       O307   2.434       .  S
C308        O312   1.266       .  A
C308        C645   1.491       .  S
O313        C316   1.267       .  A
O313       Cd318   2.472       .  S
C314        O323   1.264       .  A
C314        O319   1.269       .  A
C314       C2017   1.485       .  S
O315        C321   1.269       .  A
O315       Cd318   2.484       .  S
C316        O324   1.265       .  A
C316        C589   1.491       .  S
C317        O322   1.268       .  A
C317        O320   1.264       .  A
C317        C876   1.486       .  S
Cd318       O325   2.442       .  S
Cd318       O324   2.442       .  S
Cd318       O323   2.432       .  S
Cd318       O319   2.471       .  S
Cd318       O322   2.475       .  S
Cd318       O320   2.431       .  S
C321        O325   1.265       .  A
C321        C624   1.489       .  S
O326        C329   1.263       .  A
O326       Cd331   2.461       .  S
C327        O336   1.267       .  A
C327        O332   1.265       .  A
C327        C568   1.497   1_455  S
O328        C334   1.267       .  A
O328       Cd331   2.498       .  S
C329        O337   1.264       .  A
C329       C2108   1.482       .  S
C330        O335   1.266       .  A
C330        O333   1.262       .  A
C330        C736   1.491       .  S
Cd331       O338   2.446       .  S
Cd331       O337   2.472       .  S
Cd331       O336   2.465       .  S
Cd331       O332   2.464       .  S
Cd331       O335   2.488       .  S
Cd331       O333   2.453       .  S
C334        O338   1.265       .  A
C334        C596   1.491       .  S
O339        C342   1.265       .  A
O339       Cd344   2.460       .  S
C340        O349   1.265       .  A
C340        O345   1.266       .  A
C340       C1884   1.493       .  S
O341        C347   1.269       .  A
O341       Cd344   2.515       .  S
C342        O350   1.267       .  A
C342        C533   1.494       .  S
C343        O348   1.268       .  A
C343        O346   1.264       .  A
C343       C1016   1.489       .  S
Cd344       O351   2.420       .  S
Cd344       O350   2.483       .  S
Cd344       O349   2.462       .  S
Cd344       O345   2.470       .  S
Cd344       O348   2.500       .  S
Cd344       O346   2.435       .  S
C347        O351   1.263       .  A
C347        C561   1.496       .  S
O352        C355   1.267       .  A
O352       Cd357   2.474       .  S
C353        O362   1.267       .  A
C353        O358   1.267       .  A
C353        C617   1.492   1_655  S
O354        C360   1.270       .  A
O354       Cd357   2.484       .  S
C355        O363   1.263       .  A
C355       C1933   1.491       .  S
C356        O361   1.269       .  A
C356        O359   1.263       .  A
C356        C673   1.487       .  S
Cd357       O364   2.418       .  S
Cd357       O363   2.425       .  S
Cd357       O362   2.472       .  S
Cd357       O358   2.452       .  S
Cd357       O361   2.492       .  S
Cd357       O359   2.421       .  S
C360        O364   1.265       .  A
C360        C540   1.490       .  S
O365        C368   1.269       .  A
O365       Cd370   2.481       .  S
C366        O375   1.264       .  A
C366        O371   1.268       .  A
C366       C1492   1.475       .  S
O367        C373   1.270       .  A
O367       Cd370   2.495       .  S
C368        O376   1.266       .  A
C368        C477   1.494       .  S
C369        O374   1.268       .  A
C369        O372   1.263       .  A
C369        C792   1.477       .  S
Cd370       O377   2.438       .  S
Cd370       O376   2.433       .  S
Cd370       O375   2.431   1_556  S
Cd370       O371   2.463   1_556  S
Cd370       O374   2.476       .  S
Cd370       O372   2.430       .  S
C373        O377   1.265       .  A
C373        C505   1.494       .  S
O378        C381   1.266       .  A
O378       Cd383   2.453       .  S
C379        O388   1.264   1_554  A
C379        O384   1.266       .  A
C379       C1324   1.485       .  S
O380        C386   1.269       .  A
O380       Cd383   2.497       .  S
C381        O389   1.266       .  A
C381        C421   1.487       .  S
C382        O387   1.268       .  A
C382        O385   1.262       .  A
C382        C652   1.481       .  S
Cd383       O390   2.389       .  S
Cd383       O389   2.447       .  S
Cd383       O388   2.445       .  S
Cd383       O384   2.458   1_556  S
Cd383       O387   2.483       .  S
Cd383       O385   2.388       .  S
C386        O390   1.264       .  A
C386        C449   1.484       .  S
O391        C394   1.266       .  A
O391       Cd396   2.463       .  S
C392        O401   1.265       .  A
C392        O397   1.264       .  A
C392        C456   1.494       .  S
O393        C399   1.269       .  A
O393       Cd396   2.514       .  S
C394        O402   1.266       .  A
C394       C1380   1.488       .  S
C395        O400   1.269       .  A
C395        O398   1.264       .  A
C395        C904   1.497       .  S
Cd396       O403   2.428       .  S
Cd396       O402   2.453       .  S
Cd396       O401   2.475       .  S
Cd396       O397   2.452       .  S
Cd396       O400   2.504       .  S
Cd396       O398   2.446       .  S
C399        O403   1.263       .  A
C399        C484   1.491       .  S
O404        C407   1.264       .  A
O404       Cd409   2.474       .  S
C405        O414   1.267       .  A
C405        O410   1.263       .  A
C405        C512   1.495       .  S
O406        C412   1.265       .  A
O406       Cd409   2.491       .  S
C407        O415   1.265       .  A
C407       C1436   1.487       .  S
C408        O413   1.265       .  A
C408        O411   1.266       .  A
C408        C960   1.488       .  S
Cd409       O416   2.429       .  S
Cd409       O415   2.457       .  S
Cd409       O414   2.485       .  S
Cd409       O410   2.446       .  S
Cd409       O413   2.471       .  S
Cd409       O411   2.449       .  S
C412        O416   1.262       .  A
C412        C428   1.483       .  S
C417        C418   1.408       .  A
C417        C422   1.410       .  A
C417        C435   1.451       .  S
C418        C423   1.491       .  S
C418        C419   1.410       .  A
C419        C420   1.407       .  A
C419        C424   1.451       .  S
C420        C421   1.416       .  A
C420        C436   1.452       .  S
C421        C422   1.417       .  A
C422        C425   1.450       .  S
C423        C426   1.409       .  A
C423        C430   1.410       .  A
C424        N441   1.157       .  T
C425        N443   1.158       .  T
C426        C427   1.412       .  A
C426        C431   1.450       .  S
C427        C428   1.415       .  A
C427        C433   1.450       .  S
C428        C429   1.414       .  A
C429        C430   1.406       .  A
C429        C432   1.452       .  S
C430        C434   1.452       .  S
C431        N438   1.157       .  T
C432        N439   1.157       .  T
C433        N437   1.158       .  T
C434        N440   1.157       .  T
C435        N444   1.157       .  T
C436        N442   1.157       .  T
C445        C446   1.409       .  A
C445        C450   1.404       .  A
C445        C463   1.452       .  S
C446        C451   1.493       .  S
C446        C447   1.411       .  A
C447        C448   1.414       .  A
C447        C452   1.451       .  S
C448        C449   1.417       .  A
C448        C464   1.450       .  S
C449        C450   1.415       .  A
C450        C453   1.453       .  S
C451        C454   1.407       .  A
C451        C458   1.409       .  A
C452        N469   1.157       .  T
C453        N471   1.157       .  T
C454        C455   1.409       .  A
C454        C459   1.452       .  S
C455        C456   1.420       .  A
C455        C461   1.450       .  S
C456        C457   1.420       .  A
C457        C458   1.412       .  A
C457        C460   1.452       .  S
C458        C462   1.451       .  S
C459        N466   1.157       .  T
C460        N467   1.157       .  T
C461        N465   1.158       .  T
C462        N468   1.158       .  T
C463        N472   1.157       .  T
C464        N470   1.158       .  T
C473        C474   1.411       .  A
C473        C478   1.415       .  A
C473        C491   1.451       .  S
C474        C479   1.501       .  S
C474        C475   1.411       .  A
C475        C476   1.409       .  A
C475        C480   1.451       .  S
C476        C477   1.418       .  A
C476        C492   1.453       .  S
C477        C478   1.418       .  A
C478        C481   1.450       .  S
C479        C482   1.413       .  A
C479        C486   1.411       .  A
C480        N497   1.158       .  T
C481        N499   1.158   1_556  T
C482        C483   1.417       .  A
C482        C487   1.450       .  S
C483        C484   1.415       .  A
C483        C489   1.449       .  S
C484        C485   1.416       .  A
C485        C486   1.408       .  A
C485        C488   1.453       .  S
C486        C490   1.452       .  S
C487        N494   1.157       .  T
C488        N495   1.157       .  T
C489        N493   1.158       .  T
C490        N496   1.158       .  T
C491        N500   1.157       .  T
C492        N498   1.157       .  T
C501        C502   1.409       .  A
C501        C506   1.409       .  A
C501        C519   1.452       .  S
C502        C507   1.495       .  S
C502        C503   1.408       .  A
C503        C504   1.414       .  A
C503        C508   1.450       .  S
C504        C505   1.419       .  A
C504        C520   1.449       .  S
C505        C506   1.418       .  A
C506        C509   1.452       .  S
C507        C510   1.407       .  A
C507        C514   1.409       .  A
C508        N525   1.157       .  T
C509        N527   1.157       .  T
C510        C511   1.411       .  A
C510        C515   1.451       .  S
C511        C512   1.421       .  A
C511        C517   1.451       .  S
C512        C513   1.419       .  A
C513        C514   1.411       .  A
C513        C516   1.452       .  S
C514        C518   1.451       .  S
C515        N522   1.157       .  T
C516        N523   1.157       .  T
C517        N521   1.158       .  T
C518        N524   1.158       .  T
C519        N528   1.158       .  T
C520        N526   1.158       .  T
C529        C530   1.408       .  A
C529        C534   1.410       .  A
C529        C547   1.452       .  S
C530        C535   1.497       .  S
C530        C531   1.410       .  A
C531        C532   1.412       .  A
C531        C536   1.451       .  S
C532        C533   1.418       .  A
C532        C548   1.451       .  S
C533        C534   1.420       .  A
C534        C537   1.451       .  S
C535        C538   1.411       .  A
C535        C542   1.409       .  A
C536        N553   1.158       .  T
C537        N555   1.158       .  T
C538        C539   1.413       .  A
C538        C543   1.450       .  S
C539        C540   1.416       .  A
C539        C545   1.451       .  S
C540        C541   1.419       .  A
C541        C542   1.407       .  A
C541        C544   1.452       .  S
C542        C546   1.453       .  S
C543        N550   1.158       .  T
C544        N551   1.158       .  T
C545        N549   1.157       .  T
C546        N552   1.157       .  T
C547        N556   1.157       .  T
C548        N554   1.157       .  T
C557        C558   1.408       .  A
C557        C562   1.408       .  A
C557        C575   1.452       .  S
C558        C563   1.498       .  S
C558        C559   1.411       .  A
C559        C560   1.416       .  A
C559        C564   1.450       .  S
C560        C561   1.419       .  A
C560        C576   1.450       .  S
C561        C562   1.419       .  A
C562        C565   1.452       .  S
C563        C566   1.410       .  A
C563        C570   1.409       .  A
C564        N581   1.157       .  T
C565        N583   1.157       .  T
C566        C567   1.412       .  A
C566        C571   1.452       .  S
C567        C568   1.420       .  A
C567        C573   1.452       .  S
C568        C569   1.419       .  A
C569        C570   1.411       .  A
C569        C572   1.451       .  S
C570        C574   1.451       .  S
C571        N578   1.157       .  T
C572        N579   1.158       .  T
C573        N577   1.157       .  T
C574        N580   1.157       .  T
C575        N584   1.157       .  T
C576        N582   1.157       .  T
C585        C586   1.410       .  A
C585        C590   1.413       .  A
C585        C603   1.450       .  S
C586        C591   1.496       .  S
C586        C587   1.411       .  A
C587        C588   1.408       .  A
C587        C592   1.453       .  S
C588        C589   1.417       .  A
C588        C604   1.452       .  S
C589        C590   1.417       .  A
C590        C593   1.450       .  S
C591        C594   1.410       .  A
C591        C598   1.410       .  A
C592        N609   1.157       .  T
C593        N611   1.158       .  T
C594        C595   1.413       .  A
C594        C599   1.451       .  S
C595        C596   1.417       .  A
C595        C601   1.450       .  S
C596        C597   1.416       .  A
C597        C598   1.409       .  A
C597        C600   1.452       .  S
C598        C602   1.451       .  S
C599        N606   1.157       .  T
C600        N607   1.157       .  T
C601        N605   1.158       .  T
C602        N608   1.158       .  T
C603        N612   1.157       .  T
C604        N610   1.157       .  T
C613        C614   1.409       .  A
C613        C618   1.412       .  A
C613        C631   1.450       .  S
C614        C619   1.495       .  S
C614        C615   1.410       .  A
C615        C616   1.410       .  A
C615        C620   1.452       .  S
C616        C617   1.417       .  A
C616        C632   1.451       .  S
C617        C618   1.418       .  A
C618        C621   1.451       .  S
C619        C622   1.410       .  A
C619        C626   1.409       .  A
C620        N637   1.157       .  T
C621        N639   1.157       .  T
C622        C623   1.408       .  A
C622        C627   1.452       .  S
C623        C624   1.416       .  A
C623        C629   1.451       .  S
C624        C625   1.417       .  A
C625        C626   1.414       .  A
C625        C628   1.451       .  S
C626        C630   1.449       .  S
C627        N634   1.157       .  T
C628        N635   1.157       .  T
C629        N633   1.158       .  T
C630        N636   1.157       .  T
C631        N640   1.157       .  T
C632        N638   1.158   1_455  T
C641        C642   1.408   1_554  A
C641        C646   1.411       .  A
C641        C659   1.451       .  S
C642        C647   1.492       .  S
C642        C643   1.409       .  A
C643        C644   1.410   1_556  A
C643        C648   1.452       .  S
C644        C645   1.418       .  A
C644        C660   1.450       .  S
C645        C646   1.417       .  A
C646        C649   1.450       .  S
C647        C650   1.408   1_556  A
C647        C654   1.411       .  A
C648        N665   1.157       .  T
C649        N667   1.157       .  T
C650        C651   1.405       .  A
C650        C655   1.451       .  S
C651        C652   1.416   1_554  A
C651        C657   1.453       .  S
C652        C653   1.414       .  A
C653        C654   1.411       .  A
C653        C656   1.451       .  S
C654        C658   1.450       .  S
C655        N662   1.157       .  T
C656        N663   1.157       .  T
C657        N661   1.158       .  T
C658        N664   1.157       .  T
C659        N668   1.158       .  T
C660        N666   1.158       .  T
C669        C670   1.409       .  A
C669        C674   1.410       .  A
C669        C687   1.451       .  S
C670        C675   1.498   1_545  S
C670        C671   1.413       .  A
C671        C672   1.413       .  A
C671        C676   1.450   1_545  S
C672        C673   1.412       .  A
C672        C688   1.451       .  S
C673        C674   1.417       .  A
C674        C677   1.452       .  S
C675        C678   1.411       .  A
C675        C682   1.410       .  A
C676        N693   1.158       .  T
C677        N695   1.158       .  T
C678        C679   1.411       .  A
C678        C683   1.451       .  S
C679        C680   1.417       .  A
C679        C685   1.452       .  S
C680        C681   1.417       .  A
C681        C682   1.413       .  A
C681        C684   1.450       .  S
C682        C686   1.450       .  S
C683        N690   1.157       .  T
C684        N691   1.158       .  T
C685        N689   1.157       .  T
C686        N692   1.157       .  T
C687        N696   1.157       .  T
C688        N694   1.157       .  T
C697        C698   1.410       .  A
C697        C702   1.412       .  A
C697        C715   1.450       .  S
C698        C703   1.496       .  S
C698        C699   1.409       .  A
C699        C700   1.410       .  A
C699        C704   1.451       .  S
C700        C701   1.417       .  A
C700        C716   1.451       .  S
C701        C702   1.415       .  A
C702        C705   1.451       .  S
C703        C706   1.411       .  A
C703        C710   1.411       .  A
C704        N721   1.157       .  T
C705        N723   1.157       .  T
C706        C707   1.409       .  A
C706        C711   1.452       .  S
C707        C708   1.413       .  A
C707        C713   1.451       .  S
C708        C709   1.413       .  A
C709        C710   1.414       .  A
C709        C712   1.450       .  S
C710        C714   1.449       .  S
C711        N718   1.157       .  T
C712        N719   1.157       .  T
C713        N717   1.158       .  T
C714        N720   1.158       .  T
C715        N724   1.158       .  T
C716        N722   1.158       .  T
C725        C726   1.408       .  A
C725        C730   1.408       .  A
C725        C743   1.451       .  S
C726        C731   1.492       .  S
C726        C727   1.411       .  A
C727        C728   1.409       .  A
C727        C732   1.450       .  S
C728        C729   1.413       .  A
C728        C744   1.452       .  S
C729        C730   1.416       .  A
C730        C733   1.451       .  S
C731        C734   1.408       .  A
C731        C738   1.408       .  A
C732        N749   1.158       .  T
C733        N751   1.158       .  T
C734        C735   1.409       .  A
C734        C739   1.452       .  S
C735        C736   1.419       .  A
C735        C741   1.451       .  S
C736        C737   1.417       .  A
C737        C738   1.411       .  A
C737        C740   1.451       .  S
C738        C742   1.450       .  S
C739        N746   1.157   1_455  T
C740        N747   1.157       .  T
C741        N745   1.158   1_455  T
C742        N748   1.158       .  T
C743        N752   1.157       .  T
C744        N750   1.157       .  T
C753        C754   1.411       .  A
C753        C758   1.414       .  A
C753        C771   1.450       .  S
C754        C759   1.501       .  S
C754        C755   1.411       .  A
C755        C756   1.412       .  A
C755        C760   1.451       .  S
C756        C757   1.417       .  A
C756        C772   1.452       .  S
C757        C758   1.417       .  A
C758        C761   1.450       .  S
C759        C762   1.412       .  A
C759        C766   1.410       .  A
C760        N777   1.157       .  T
C761        N779   1.158       .  T
C762        C763   1.416       .  A
C762        C767   1.449       .  S
C763        C764   1.416       .  A
C763        C769   1.451       .  S
C764        C765   1.419       .  A
C765        C766   1.410       .  A
C765        C768   1.451       .  S
C766        C770   1.452       .  S
C767        N774   1.158       .  T
C768        N775   1.158       .  T
C769        N773   1.157       .  T
C770        N776   1.157       .  T
C771        N780   1.157       .  T
C772        N778   1.157       .  T
C781        C782   1.410   1_556  A
C781        C786   1.408   1_556  A
C781        C799   1.451       .  S
C782        C787   1.496       .  S
C782        C783   1.413       .  A
C783        C784   1.411       .  A
C783        C788   1.450       .  S
C784        C785   1.411       .  A
C784        C800   1.451       .  S
C785        C786   1.415       .  A
C786        C789   1.452   1_554  S
C787        C790   1.412       .  A
C787        C794   1.413   1_554  A
C788        N805   1.158       .  T
C789        N807   1.158       .  T
C790        C791   1.410       .  A
C790        C795   1.451       .  S
C791        C792   1.411   1_554  A
C791        C797   1.451       .  S
C792        C793   1.411       .  A
C793        C794   1.409       .  A
C793        C796   1.452       .  S
C794        C798   1.450       .  S
C795        N802   1.157       .  T
C796        N803   1.157       .  T
C797        N801   1.158       .  T
C798        N804   1.158       .  T
C799        N808   1.157       .  T
C800        N806   1.157       .  T
C809        C810   1.410       .  A
C809        C814   1.405       .  A
C809        C827   1.452       .  S
C810        C815   1.493       .  S
C810        C811   1.411       .  A
C811        C812   1.414       .  A
C811        C816   1.450       .  S
C812        C813   1.414       .  A
C812        C828   1.450       .  S
C813        C814   1.412       .  A
C814        C817   1.453       .  S
C815        C818   1.411       .  A
C815        C822   1.408       .  A
C816        N833   1.157       .  T
C817        N835   1.157       .  T
C818        C819   1.411       .  A
C818        C823   1.450       .  S
C819        C820   1.414       .  A
C819        C825   1.451       .  S
C820        C821   1.417       .  A
C821        C822   1.408       .  A
C821        C824   1.452       .  S
C822        C826   1.451       .  S
C823        N830   1.158       .  T
C824        N831   1.158       .  T
C825        N829   1.157       .  T
C826        N832   1.157       .  T
C827        N836   1.158       .  T
C828        N834   1.158       .  T
C837        C838   1.411       .  A
C837        C842   1.413       .  A
C837        C855   1.449       .  S
C838        C843   1.492       .  S
C838        C839   1.408       .  A
C839        C840   1.405       .  A
C839        C844   1.453       .  S
C840        C841   1.418       .  A
C840        C856   1.452       .  S
C841        C842   1.415       .  A
C842        C845   1.450       .  S
C843        C846   1.410       .  A
C843        C850   1.409       .  A
C844        N861   1.157       .  T
C845        N863   1.157       .  T
C846        C847   1.410       .  A
C846        C851   1.450       .  S
C847        C848   1.416   1_455  A
C847        C853   1.451   1_455  S
C848        C849   1.417   1_655  A
C849        C850   1.409       .  A
C849        C852   1.451   1_455  S
C850        C854   1.452       .  S
C851        N858   1.158       .  T
C852        N859   1.158       .  T
C853        N857   1.157       .  T
C854        N860   1.157       .  T
C855        N864   1.158       .  T
C856        N862   1.158       .  T
C865        C866   1.408       .  A
C865        C870   1.411       .  A
C865        C883   1.451       .  S
C866        C871   1.491       .  S
C866        C867   1.408       .  A
C867        C868   1.409       .  A
C867        C872   1.452       .  S
C868        C869   1.418       .  A
C868        C884   1.452       .  S
C869        C870   1.418       .  A
C870        C873   1.450       .  S
C871        C874   1.407       .  A
C871        C878   1.409       .  A
C872        N889   1.157       .  T
C873        N891   1.157       .  T
C874        C875   1.408       .  A
C874        C879   1.451       .  S
C875        C876   1.418       .  A
C875        C881   1.452       .  S
C876        C877   1.416       .  A
C877        C878   1.410       .  A
C877        C880   1.451       .  S
C878        C882   1.451       .  S
C879        N886   1.157       .  T
C880        N887   1.157       .  T
C881        N885   1.157       .  T
C882        N888   1.157       .  T
C883        N892   1.157       .  T
C884        N890   1.158       .  T
C893        C894   1.409       .  A
C893        C898   1.411       .  A
C893        C911   1.451       .  S
C894        C899   1.500       .  S
C894        C895   1.410       .  A
C895        C896   1.414       .  A
C895        C900   1.450       .  S
C896        C897   1.417       .  A
C896        C912   1.451       .  S
C897        C898   1.417       .  A
C898        C901   1.451       .  S
C899        C902   1.409       .  A
C899        C906   1.410       .  A
C900        N917   1.157       .  T
C901        N919   1.157       .  T
C902        C903   1.412       .  A
C902        C907   1.451       .  S
C903        C904   1.420       .  A
C903        C909   1.452       .  S
C904        C905   1.417       .  A
C905        C906   1.414       .  A
C905        C908   1.450       .  S
C906        C910   1.451       .  S
C907        N914   1.157       .  T
C908        N915   1.157       .  T
C909        N913   1.158       .  T
C910        N916   1.157       .  T
C911        N920   1.157       .  T
C912        N918   1.157       .  T
C921        C922   1.410       .  A
C921        C926   1.410       .  A
C921        C939   1.450       .  S
C922        C927   1.496       .  S
C922        C923   1.411       .  A
C923        C924   1.412       .  A
C923        C928   1.450       .  S
C924        C925   1.412       .  A
C924        C940   1.450       .  S
C925        C926   1.414       .  A
C926        C929   1.452       .  S
C927        C930   1.411       .  A
C927        C934   1.409       .  A
C928        N945   1.157       .  T
C929        N947   1.157       .  T
C930        C931   1.410       .  A
C930        C935   1.451       .  S
C931        C932   1.415       .  A
C931        C937   1.452       .  S
C932        C933   1.415       .  A
C933        C934   1.411       .  A
C933        C936   1.451       .  S
C934        C938   1.450       .  S
C935        N942   1.157       .  T
C936        N943   1.157       .  T
C937        N941   1.158       .  T
C938        N944   1.157       .  T
C939        N948   1.157       .  T
C940        N946   1.157       .  T
C949        C950   1.409   1_545  A
C949        C954   1.406       .  A
C949        C967   1.450       .  S
C950        C955   1.490       .  S
C950        C951   1.413   1_565  A
C951        C952   1.408       .  A
C951        C956   1.451   1_545  S
C952        C953   1.411       .  A
C952        C968   1.451       .  S
C953        C954   1.411       .  A
C954        C957   1.452       .  S
C955        C958   1.409       .  A
C955        C962   1.408       .  A
C956        N973   1.157       .  T
C957        N975   1.157       .  T
C958        C959   1.407       .  A
C958        C963   1.452       .  S
C959        C960   1.415       .  A
C959        C965   1.451       .  S
C960        C961   1.419       .  A
C961        C962   1.412       .  A
C961        C964   1.450       .  S
C962        C966   1.451       .  S
C963        N970   1.157       .  T
C964        N971   1.158       .  T
C965        N969   1.157       .  T
C966        N972   1.157       .  T
C967        N976   1.157   1_545  T
C968        N974   1.158       .  T
C977        C978   1.408       .  A
C977        C982   1.410       .  A
C977        C995   1.450       .  S
C978        C983   1.491       .  S
C978        C979   1.408       .  A
C979        C980   1.408       .  A
C979        C984   1.452       .  S
C980        C981   1.418       .  A
C980        C996   1.452       .  S
C981        C982   1.416       .  A
C982        C985   1.450       .  S
C983        C986   1.409       .  A
C983        C990   1.410       .  A
C984       N1001   1.157       .  T
C985       N1003   1.157       .  T
C986        C987   1.411       .  A
C986        C991   1.450       .  S
C987        C988   1.416       .  A
C987        C993   1.451       .  S
C988        C989   1.416       .  A
C989        C990   1.405       .  A
C989        C992   1.453       .  S
C990        C994   1.453       .  S
C991        N998   1.158       .  T
C992        N999   1.158       .  T
C993        N997   1.157       .  T
C994       N1000   1.157       .  T
C995       N1004   1.157       .  T
C996       N1002   1.158       .  T
C1005      C1006   1.411       .  A
C1005      C1010   1.409       .  A
C1005      C1023   1.451       .  S
C1006      C1011   1.495       .  S
C1006      C1007   1.410       .  A
C1007      C1008   1.411       .  A
C1007      C1012   1.450       .  S
C1008      C1009   1.415       .  A
C1008      C1024   1.451       .  S
C1009      C1010   1.414       .  A
C1010      C1013   1.452       .  S
C1011      C1014   1.411       .  A
C1011      C1018   1.408       .  A
C1012      N1029   1.157       .  T
C1013      N1031   1.158       .  T
C1014      C1015   1.414       .  A
C1014      C1019   1.450       .  S
C1015      C1016   1.415       .  A
C1015      C1021   1.451       .  S
C1016      C1017   1.417       .  A
C1017      C1018   1.408       .  A
C1017      C1020   1.451       .  S
C1018      C1022   1.452       .  S
C1019      N1026   1.158       .  T
C1020      N1027   1.158       .  T
C1021      N1025   1.157       .  T
C1022      N1028   1.157       .  T
C1023      N1032   1.157       .  T
C1024      N1030   1.157       .  T
C1033      C1034   1.410       .  A
C1033      C1038   1.413       .  A
C1033      C1051   1.450       .  S
C1034      C1039   1.494       .  S
C1034      C1035   1.409       .  A
C1035      C1036   1.407       .  A
C1035      C1040   1.452       .  S
C1036      C1037   1.417       .  A
C1036      C1052   1.452       .  S
C1037      C1038   1.417       .  A
C1038      C1041   1.451       .  S
C1039      C1042   1.411       .  A
C1039      C1046   1.412       .  A
C1040      N1057   1.157       .  T
C1041      N1059   1.157       .  T
C1042      C1043   1.411       .  A
C1042      C1047   1.450       .  S
C1043      C1044   1.413       .  A
C1043      C1049   1.450       .  S
C1044      C1045   1.414       .  A
C1045      C1046   1.408       .  A
C1045      C1048   1.452       .  S
C1046      C1050   1.452       .  S
C1047      N1054   1.157       .  T
C1048      N1055   1.158       .  T
C1049      N1053   1.157       .  T
C1050      N1056   1.157       .  T
C1051      N1060   1.157       .  T
C1052      N1058   1.158       .  T
C1061      C1062   1.411       .  A
C1061      C1066   1.409       .  A
C1061      C1079   1.452       .  S
C1062      C1067   1.492       .  S
C1062      C1063   1.408       .  A
C1063      C1064   1.411       .  A
C1063      C1068   1.449       .  S
C1064      C1065   1.415       .  A
C1064      C1080   1.450       .  S
C1065      C1066   1.416       .  A
C1066      C1069   1.452       .  S
C1067      C1070   1.409       .  A
C1067      C1074   1.410       .  A
C1068      N1085   1.157       .  T
C1069      N1087   1.158       .  T
C1070      C1071   1.408       .  A
C1070      C1075   1.451       .  S
C1071      C1072   1.414       .  A
C1071      C1077   1.452       .  S
C1072      C1073   1.414       .  A
C1073      C1074   1.410       .  A
C1073      C1076   1.451       .  S
C1074      C1078   1.449       .  S
C1075      N1082   1.157       .  T
C1076      N1083   1.157       .  T
C1077      N1081   1.158       .  T
C1078      N1084   1.157       .  T
C1079      N1088   1.157       .  T
C1080      N1086   1.157       .  T
C1089      C1090   1.411       .  A
C1089      C1094   1.411       .  A
C1089      C1107   1.450       .  S
C1090      C1095   1.495       .  S
C1090      C1091   1.410       .  A
C1091      C1092   1.409       .  A
C1091      C1096   1.451       .  S
C1092      C1093   1.416       .  A
C1092      C1108   1.452       .  S
C1093      C1094   1.414       .  A
C1094      C1097   1.451       .  S
C1095      C1098   1.410       .  A
C1095      C1102   1.410       .  A
C1096      N1113   1.157       .  T
C1097      N1115   1.157       .  T
C1098      C1099   1.412       .  A
C1098      C1103   1.451       .  S
C1099      C1100   1.416       .  A
C1099      C1105   1.451       .  S
C1100      C1101   1.415       .  A
C1101      C1102   1.410       .  A
C1101      C1104   1.451       .  S
C1102      C1106   1.451       .  S
C1103      N1110   1.157       .  T
C1104      N1111   1.157       .  T
C1105      N1109   1.157       .  T
C1106      N1112   1.157       .  T
C1107      N1116   1.157       .  T
C1108      N1114   1.158       .  T
C1117      C1118   1.410       .  A
C1117      C1122   1.408       .  A
C1117      C1135   1.451       .  S
C1118      C1123   1.492       .  S
C1118      C1119   1.411       .  A
C1119      C1120   1.409       .  A
C1119      C1124   1.451       .  S
C1120      C1121   1.414       .  A
C1120      C1136   1.451       .  S
C1121      C1122   1.415       .  A
C1122      C1125   1.452       .  S
C1123      C1126   1.409       .  A
C1123      C1130   1.408       .  A
C1124      N1141   1.157       .  T
C1125      N1143   1.157       .  T
C1126      C1127   1.408       .  A
C1126      C1131   1.453       .  S
C1127      C1128   1.419       .  A
C1127      C1133   1.451       .  S
C1128      C1129   1.419       .  A
C1129      C1130   1.410       .  A
C1129      C1132   1.452       .  S
C1130      C1134   1.451       .  S
C1131      N1138   1.157       .  T
C1132      N1139   1.157       .  T
C1133      N1137   1.158       .  T
C1134      N1140   1.158       .  T
C1135      N1144   1.157       .  T
C1136      N1142   1.158       .  T
C1145      C1146   1.411       .  A
C1145      C1150   1.410       .  A
C1145      C1163   1.452       .  S
C1146      C1151   1.499       .  S
C1146      C1147   1.412       .  A
C1147      C1148   1.414       .  A
C1147      C1152   1.450       .  S
C1148      C1149   1.415       .  A
C1148      C1164   1.450       .  S
C1149      C1150   1.415       .  A
C1150      C1153   1.451       .  S
C1151      C1154   1.412       .  A
C1151      C1158   1.411       .  A
C1152      N1169   1.157       .  T
C1153      N1171   1.158       .  T
C1154      C1155   1.415       .  A
C1154      C1159   1.449       .  S
C1155      C1156   1.413       .  A
C1155      C1161   1.449       .  S
C1156      C1157   1.412       .  A
C1157      C1158   1.408       .  A
C1157      C1160   1.452       .  S
C1158      C1162   1.451       .  S
C1159      N1166   1.157       .  T
C1160      N1167   1.157       .  T
C1161      N1165   1.158       .  T
C1162      N1168   1.158       .  T
C1163      N1172   1.157       .  T
C1164      N1170   1.157       .  T
C1173      C1174   1.411       .  A
C1173      C1178   1.407       .  A
C1173      C1191   1.451       .  S
C1174      C1179   1.493       .  S
C1174      C1175   1.411       .  A
C1175      C1176   1.409       .  A
C1175      C1180   1.451       .  S
C1176      C1177   1.415       .  A
C1176      C1192   1.452       .  S
C1177      C1178   1.413       .  A
C1178      C1181   1.452       .  S
C1179      C1182   1.409       .  A
C1179      C1186   1.411       .  A
C1180      N1197   1.158       .  T
C1181      N1199   1.158       .  T
C1182      C1183   1.408       .  A
C1182      C1187   1.452       .  S
C1183      C1184   1.417       .  A
C1183      C1189   1.451       .  S
C1184      C1185   1.414       .  A
C1185      C1186   1.410       .  A
C1185      C1188   1.451       .  S
C1186      C1190   1.451       .  S
C1187      N1194   1.157       .  T
C1188      N1195   1.157       .  T
C1189      N1193   1.158       .  T
C1190      N1196   1.158       .  T
C1191      N1200   1.157       .  T
C1192      N1198   1.157       .  T
C1201      C1202   1.409       .  A
C1201      C1206   1.413       .  A
C1201      C1219   1.450       .  S
C1202      C1207   1.498       .  S
C1202      C1203   1.411       .  A
C1203      C1204   1.412       .  A
C1203      C1208   1.452       .  S
C1204      C1205   1.418       .  A
C1204      C1220   1.451       .  S
C1205      C1206   1.418       .  A
C1206      C1209   1.450       .  S
C1207      C1210   1.410       .  A
C1207      C1214   1.411       .  A
C1208      N1225   1.157       .  T
C1209      N1227   1.157       .  T
C1210      C1211   1.408       .  A
C1210      C1215   1.451       .  S
C1211      C1212   1.414       .  A
C1211      C1217   1.450       .  S
C1212      C1213   1.415       .  A
C1213      C1214   1.413       .  A
C1213      C1216   1.450       .  S
C1214      C1218   1.450       .  S
C1215      N1222   1.158       .  T
C1216      N1223   1.158       .  T
C1217      N1221   1.156       .  T
C1218      N1224   1.157       .  T
C1219      N1228   1.157       .  T
C1220      N1226   1.158       .  T
C1229      C1230   1.411       .  A
C1229      C1234   1.410       .  A
C1229      C1247   1.451       .  S
C1230      C1235   1.493       .  S
C1230      C1231   1.410       .  A
C1231      C1232   1.408       .  A
C1231      C1236   1.450       .  S
C1232      C1233   1.414       .  A
C1232      C1248   1.452   1_556  S
C1233      C1234   1.412       .  A
C1234      C1237   1.451       .  S
C1235      C1238   1.409       .  A
C1235      C1242   1.409       .  A
C1236      N1253   1.157       .  T
C1237      N1255   1.158       .  T
C1238      C1239   1.410       .  A
C1238      C1243   1.451       .  S
C1239      C1240   1.418       .  A
C1239      C1245   1.452       .  S
C1240      C1241   1.418       .  A
C1241      C1242   1.410       .  A
C1241      C1244   1.451       .  S
C1242      C1246   1.451       .  S
C1243      N1250   1.157       .  T
C1244      N1251   1.157       .  T
C1245      N1249   1.158       .  T
C1246      N1252   1.158       .  T
C1247      N1256   1.157       .  T
C1248      N1254   1.157       .  T
C1257      C1258   1.408       .  A
C1257      C1262   1.409       .  A
C1257      C1275   1.452       .  S
C1258      C1263   1.493       .  S
C1258      C1259   1.408       .  A
C1259      C1260   1.411       .  A
C1259      C1264   1.450       .  S
C1260      C1261   1.418       .  A
C1260      C1276   1.451       .  S
C1261      C1262   1.418       .  A
C1262      C1265   1.451       .  S
C1263      C1266   1.407       .  A
C1263      C1270   1.407       .  A
C1264      N1281   1.157       .  T
C1265      N1283   1.158       .  T
C1266      C1267   1.407       .  A
C1266      C1271   1.452       .  S
C1267      C1268   1.421       .  A
C1267      C1273   1.453       .  S
C1268      C1269   1.423       .  A
C1269      C1270   1.413       .  A
C1269      C1272   1.450       .  S
C1270      C1274   1.451       .  S
C1271      N1278   1.158       .  T
C1272      N1279   1.158       .  T
C1273      N1277   1.157       .  T
C1274      N1280   1.157       .  T
C1275      N1284   1.157       .  T
C1276      N1282   1.157       .  T
C1285      C1286   1.407       .  A
C1285      C1290   1.409       .  A
C1285      C1303   1.451       .  S
C1286      C1291   1.490       .  S
C1286      C1287   1.409       .  A
C1287      C1288   1.408       .  A
C1287      C1292   1.452       .  S
C1288      C1289   1.417       .  A
C1288      C1304   1.451       .  S
C1289      C1290   1.419       .  A
C1290      C1293   1.452       .  S
C1291      C1294   1.408       .  A
C1291      C1298   1.408       .  A
C1292      N1309   1.158       .  T
C1293      N1311   1.158       .  T
C1294      C1295   1.410       .  A
C1294      C1299   1.450       .  S
C1295      C1296   1.416       .  A
C1295      C1301   1.451       .  S
C1296      C1297   1.419       .  A
C1297      C1298   1.407       .  A
C1297      C1300   1.452       .  S
C1298      C1302   1.453       .  S
C1299      N1306   1.158       .  T
C1300      N1307   1.158       .  T
C1301      N1305   1.157       .  T
C1302      N1308   1.157       .  T
C1303      N1312   1.157       .  T
C1304      N1310   1.157       .  T
C1313      C1314   1.410       .  A
C1313      C1318   1.409       .  A
C1313      C1331   1.451       .  S
C1314      C1319   1.492       .  S
C1314      C1315   1.410       .  A
C1315      C1316   1.410       .  A
C1315      C1320   1.450       .  S
C1316      C1317   1.415       .  A
C1316      C1332   1.451       .  S
C1317      C1318   1.415       .  A
C1318      C1321   1.451       .  S
C1319      C1322   1.410       .  A
C1319      C1326   1.409       .  A
C1320      N1337   1.157       .  T
C1321      N1339   1.158       .  T
C1322      C1323   1.409       .  A
C1322      C1327   1.451       .  S
C1323      C1324   1.416       .  A
C1323      C1329   1.452       .  S
C1324      C1325   1.416       .  A
C1325      C1326   1.409       .  A
C1325      C1328   1.451       .  S
C1326      C1330   1.451       .  S
C1327      N1334   1.157       .  T
C1328      N1335   1.157       .  T
C1329      N1333   1.158       .  T
C1330      N1336   1.157       .  T
C1331      N1340   1.157       .  T
C1332      N1338   1.157       .  T
C1341      C1342   1.407       .  A
C1341      C1346   1.407       .  A
C1341      C1359   1.452       .  S
C1342      C1347   1.491       .  S
C1342      C1343   1.410       .  A
C1343      C1344   1.412       .  A
C1343      C1348   1.451       .  S
C1344      C1345   1.417       .  A
C1344      C1360   1.450       .  S
C1345      C1346   1.418       .  A
C1346      C1349   1.451       .  S
C1347      C1350   1.410       .  A
C1347      C1354   1.412       .  A
C1348      N1365   1.157       .  T
C1349      N1367   1.157       .  T
C1350      C1351   1.409       .  A
C1350      C1355   1.450       .  S
C1351      C1352   1.413       .  A
C1351      C1357   1.451       .  S
C1352      C1353   1.412       .  A
C1353      C1354   1.407       .  A
C1353      C1356   1.452       .  S
C1354      C1358   1.452       .  S
C1355      N1362   1.157       .  T
C1356      N1363   1.158       .  T
C1357      N1361   1.157       .  T
C1358      N1364   1.157       .  T
C1359      N1368   1.157       .  T
C1360      N1366   1.158       .  T
C1369      C1370   1.410       .  A
C1369      C1374   1.408       .  A
C1369      C1387   1.450       .  S
C1370      C1375   1.492       .  S
C1370      C1371   1.411       .  A
C1371      C1372   1.409       .  A
C1371      C1376   1.451       .  S
C1372      C1373   1.413       .  A
C1372      C1388   1.452       .  S
C1373      C1374   1.413       .  A
C1374      C1377   1.452       .  S
C1375      C1378   1.409       .  A
C1375      C1382   1.409       .  A
C1376      N1393   1.157       .  T
C1377      N1395   1.158       .  T
C1378      C1379   1.411       .  A
C1378      C1383   1.451       .  S
C1379      C1380   1.417       .  A
C1379      C1385   1.451       .  S
C1380      C1381   1.415       .  A
C1381      C1382   1.408       .  A
C1381      C1384   1.451       .  S
C1382      C1386   1.452       .  S
C1383      N1390   1.157       .  T
C1384      N1391   1.157       .  T
C1385      N1389   1.157       .  T
C1386      N1392   1.157       .  T
C1387      N1396   1.157       .  T
C1388      N1394   1.157       .  T
C1397      C1398   1.410       .  A
C1397      C1402   1.407       .  A
C1397      C1415   1.452       .  S
C1398      C1403   1.497       .  S
C1398      C1399   1.412       .  A
C1399      C1400   1.413       .  A
C1399      C1404   1.450       .  S
C1400      C1401   1.415       .  A
C1400      C1416   1.451       .  S
C1401      C1402   1.416       .  A
C1402      C1405   1.452       .  S
C1403      C1406   1.410       .  A
C1403      C1410   1.410       .  A
C1404      N1421   1.157       .  T
C1405      N1423   1.157       .  T
C1406      C1407   1.410       .  A
C1406      C1411   1.452       .  S
C1407      C1408   1.419       .  A
C1407      C1413   1.451       .  S
C1408      C1409   1.418       .  A
C1409      C1410   1.412       .  A
C1409      C1412   1.451       .  S
C1410      C1414   1.451       .  S
C1411      N1418   1.157       .  T
C1412      N1419   1.157       .  T
C1413      N1417   1.157       .  T
C1414      N1420   1.157       .  T
C1415      N1424   1.157       .  T
C1416      N1422   1.157       .  T
C1425      C1426   1.411       .  A
C1425      C1430   1.412       .  A
C1425      C1443   1.451       .  S
C1426      C1431   1.496       .  S
C1426      C1427   1.409       .  A
C1427      C1428   1.410       .  A
C1427      C1432   1.451       .  S
C1428      C1429   1.417       .  A
C1428      C1444   1.451       .  S
C1429      C1430   1.414       .  A
C1430      C1433   1.450       .  S
C1431      C1434   1.411       .  A
C1431      C1438   1.410       .  A
C1432      N1449   1.157       .  T
C1433      N1451   1.157       .  T
C1434      C1435   1.409       .  A
C1434      C1439   1.451       .  S
C1435      C1436   1.414       .  A
C1435      C1441   1.451       .  S
C1436      C1437   1.417       .  A
C1437      C1438   1.412       .  A
C1437      C1440   1.451       .  S
C1438      C1442   1.450       .  S
C1439      N1446   1.157       .  T
C1440      N1447   1.157       .  T
C1441      N1445   1.158       .  T
C1442      N1448   1.157       .  T
C1443      N1452   1.157       .  T
C1444      N1450   1.157       .  T
C1453      C1454   1.410       .  A
C1453      C1458   1.410       .  A
C1453      C1471   1.452       .  S
C1454      C1459   1.499       .  S
C1454      C1455   1.411       .  A
C1455      C1456   1.414       .  A
C1455      C1460   1.450       .  S
C1456      C1457   1.417       .  A
C1456      C1472   1.450       .  S
C1457      C1458   1.419       .  A
C1458      C1461   1.452       .  S
C1459      C1462   1.411       .  A
C1459      C1466   1.410       .  A
C1460      N1477   1.157       .  T
C1461      N1479   1.157       .  T
C1462      C1463   1.415       .  A
C1462      C1467   1.451       .  S
C1463      C1464   1.417       .  A
C1463      C1469   1.450       .  S
C1464      C1465   1.417       .  A
C1465      C1466   1.409       .  A
C1465      C1468   1.452       .  S
C1466      C1470   1.451       .  S
C1467      N1474   1.157       .  T
C1468      N1475   1.157       .  T
C1469      N1473   1.158       .  T
C1470      N1476   1.157       .  T
C1471      N1480   1.158       .  T
C1472      N1478   1.158       .  T
C1481      C1482   1.409       .  A
C1481      C1486   1.408       .  A
C1481      C1499   1.451       .  S
C1482      C1487   1.489       .  S
C1482      C1483   1.408       .  A
C1483      C1484   1.408       .  A
C1483      C1488   1.451       .  S
C1484      C1485   1.417       .  A
C1484      C1500   1.452       .  S
C1485      C1486   1.416       .  A
C1486      C1489   1.451       .  S
C1487      C1490   1.411       .  A
C1487      C1494   1.409       .  A
C1488      N1505   1.157       .  T
C1489      N1507   1.157       .  T
C1490      C1491   1.409       .  A
C1490      C1495   1.451       .  S
C1491      C1492   1.412       .  A
C1491      C1497   1.451       .  S
C1492      C1493   1.412       .  A
C1493      C1494   1.407       .  A
C1493      C1496   1.452       .  S
C1494      C1498   1.451       .  S
C1495      N1502   1.157       .  T
C1496      N1503   1.157       .  T
C1497      N1501   1.158       .  T
C1498      N1504   1.157       .  T
C1499      N1508   1.157       .  T
C1500      N1506   1.158       .  T
C1509      C1510   1.410       .  A
C1509      C1514   1.411   1_565  A
C1509      C1527   1.450       .  S
C1510      C1515   1.492       .  S
C1510      C1511   1.408   1_565  A
C1511      C1512   1.408       .  A
C1511      C1516   1.451   1_545  S
C1512      C1513   1.417       .  A
C1512      C1528   1.452       .  S
C1513      C1514   1.415       .  A
C1514      C1517   1.450       .  S
C1515      C1518   1.409       .  A
C1515      C1522   1.409       .  A
C1516      N1533   1.157       .  T
C1517      N1535   1.157       .  T
C1518      C1519   1.407       .  A
C1518      C1523   1.451       .  S
C1519      C1520   1.416       .  A
C1519      C1525   1.453       .  S
C1520      C1521   1.416       .  A
C1521      C1522   1.412       .  A
C1521      C1524   1.450       .  S
C1522      C1526   1.451       .  S
C1523      N1530   1.158       .  T
C1524      N1531   1.158       .  T
C1525      N1529   1.157       .  T
C1526      N1532   1.157       .  T
C1527      N1536   1.157       .  T
C1528      N1534   1.158       .  T
C1537      C1538   1.408       .  A
C1537      C1542   1.407       .  A
C1537      C1555   1.451       .  S
C1538      C1543   1.488       .  S
C1538      C1539   1.408       .  A
C1539      C1540   1.407       .  A
C1539      C1544   1.451       .  S
C1540      C1541   1.418       .  A
C1540      C1556   1.452       .  S
C1541      C1542   1.416       .  A
C1542      C1545   1.451       .  S
C1543      C1546   1.408       .  A
C1543      C1550   1.407       .  A
C1544      N1561   1.157       .  T
C1545      N1563   1.158       .  T
C1546      C1547   1.406       .  A
C1546      C1551   1.452       .  S
C1547      C1548   1.416       .  A
C1547      C1553   1.452       .  S
C1548      C1549   1.418       .  A
C1549      C1550   1.412       .  A
C1549      C1552   1.449       .  S
C1550      C1554   1.451       .  S
C1551      N1558   1.158       .  T
C1552      N1559   1.158       .  T
C1553      N1557   1.157       .  T
C1554      N1560   1.157       .  T
C1555      N1564   1.157       .  T
C1556      N1562   1.157       .  T
C1565      C1566   1.408       .  A
C1565      C1570   1.407       .  A
C1565      C1583   1.453       .  S
C1566      C1571   1.493       .  S
C1566      C1567   1.408       .  A
C1567      C1568   1.414       .  A
C1567      C1572   1.450       .  S
C1568      C1569   1.419       .  A
C1568      C1584   1.450       .  S
C1569      C1570   1.421       .  A
C1570      C1573   1.453       .  S
C1571      C1574   1.410       .  A
C1571      C1578   1.408       .  A
C1572      N1589   1.157       .  T
C1573      N1591   1.157       .  T
C1574      C1575   1.412       .  A
C1574      C1579   1.450       .  S
C1575      C1576   1.414       .  A
C1575      C1581   1.450       .  S
C1576      C1577   1.416       .  A
C1577      C1578   1.409       .  A
C1577      C1580   1.450       .  S
C1578      C1582   1.451       .  S
C1579      N1586   1.158       .  T
C1580      N1587   1.158       .  T
C1581      N1585   1.157       .  T
C1582      N1588   1.157       .  T
C1583      N1592   1.158       .  T
C1584      N1590   1.158       .  T
C1593      C1594   1.410       .  A
C1593      C1598   1.410       .  A
C1593      C1611   1.452       .  S
C1594      C1599   1.493       .  S
C1594      C1595   1.409       .  A
C1595      C1596   1.408       .  A
C1595      C1600   1.451       .  S
C1596      C1597   1.417       .  A
C1596      C1612   1.453       .  S
C1597      C1598   1.417       .  A
C1598      C1601   1.451       .  S
C1599      C1602   1.408       .  A
C1599      C1606   1.408       .  A
C1600      N1617   1.157       .  T
C1601      N1619   1.158       .  T
C1602      C1603   1.411       .  A
C1602      C1607   1.452       .  S
C1603      C1604   1.421       .  A
C1603      C1609   1.450       .  S
C1604      C1605   1.422       .  A
C1605      C1606   1.408       .  A
C1605      C1608   1.452       .  S
C1606      C1610   1.453       .  S
C1607      N1614   1.157       .  T
C1608      N1615   1.157       .  T
C1609      N1613   1.158       .  T
C1610      N1616   1.158       .  T
C1611      N1620   1.157       .  T
C1612      N1618   1.157       .  T
C1621      C1622   1.410       .  A
C1621      C1626   1.406       .  A
C1621      C1639   1.451       .  S
C1622      C1627   1.492       .  S
C1622      C1623   1.409       .  A
C1623      C1624   1.411       .  A
C1623      C1628   1.452       .  S
C1624      C1625   1.418       .  A
C1624      C1640   1.450       .  S
C1625      C1626   1.414       .  A
C1626      C1629   1.452       .  S
C1627      C1630   1.408       .  A
C1627      C1634   1.410       .  A
C1628      N1645   1.157       .  T
C1629      N1647   1.157       .  T
C1630      C1631   1.408       .  A
C1630      C1635   1.451       .  S
C1631      C1632   1.418       .  A
C1631      C1637   1.451       .  S
C1632      C1633   1.418       .  A
C1633      C1634   1.409       .  A
C1633      C1636   1.452       .  S
C1634      C1638   1.452       .  S
C1635      N1642   1.157       .  T
C1636      N1643   1.157       .  T
C1637      N1641   1.158       .  T
C1638      N1644   1.158       .  T
C1639      N1648   1.158       .  T
C1640      N1646   1.158       .  T
C1649      C1650   1.409       .  A
C1649      C1654   1.410       .  A
C1649      C1667   1.452       .  S
C1650      C1655   1.496       .  S
C1650      C1651   1.409       .  A
C1651      C1652   1.413       .  A
C1651      C1656   1.451       .  S
C1652      C1653   1.418       .  A
C1652      C1668   1.450       .  S
C1653      C1654   1.419       .  A
C1654      C1657   1.452       .  S
C1655      C1658   1.409       .  A
C1655      C1662   1.411       .  A
C1656      N1673   1.157       .  T
C1657      N1675   1.157       .  T
C1658      C1659   1.410       .  A
C1658      C1663   1.451       .  S
C1659      C1660   1.416       .  A
C1659      C1665   1.451       .  S
C1660      C1661   1.414       .  A
C1661      C1662   1.410       .  A
C1661      C1664   1.451       .  S
C1662      C1666   1.450       .  S
C1663      N1670   1.157       .  T
C1664      N1671   1.157       .  T
C1665      N1669   1.158       .  T
C1666      N1672   1.158       .  T
C1667      N1676   1.158       .  T
C1668      N1674   1.158       .  T
C1677      C1678   1.409       .  A
C1677      C1682   1.410       .  A
C1677      C1695   1.451       .  S
C1678      C1683   1.491       .  S
C1678      C1679   1.407       .  A
C1679      C1680   1.409       .  A
C1679      C1684   1.450       .  S
C1680      C1681   1.416       .  A
C1680      C1696   1.451       .  S
C1681      C1682   1.416       .  A
C1682      C1685   1.451       .  S
C1683      C1686   1.407       .  A
C1683      C1690   1.407       .  A
C1684      N1701   1.157       .  T
C1685      N1703   1.158       .  T
C1686      C1687   1.406       .  A
C1686      C1691   1.454       .  S
C1687      C1688   1.422       .  A
C1687      C1693   1.452       .  S
C1688      C1689   1.419       .  A
C1689      C1690   1.414       .  A
C1689      C1692   1.450       .  S
C1690      C1694   1.450       .  S
C1691      N1698   1.157       .  T
C1692      N1699   1.157       .  T
C1693      N1697   1.158       .  T
C1694      N1700   1.158       .  T
C1695      N1704   1.157       .  T
C1696      N1702   1.157       .  T
C1705      C1706   1.412       .  A
C1705      C1710   1.409       .  A
C1705      C1723   1.451       .  S
C1706      C1711   1.496       .  S
C1706      C1707   1.412       .  A
C1707      C1708   1.410       .  A
C1707      C1712   1.451       .  S
C1708      C1709   1.414       .  A
C1708      C1724   1.451       .  S
C1709      C1710   1.413       .  A
C1710      C1713   1.452       .  S
C1711      C1714   1.410       .  A
C1711      C1718   1.409       .  A
C1712      N1729   1.157       .  T
C1713      N1731   1.157       .  T
C1714      C1715   1.410       .  A
C1714      C1719   1.452       .  S
C1715      C1716   1.418       .  A
C1715      C1721   1.451       .  S
C1716      C1717   1.421       .  A
C1717      C1718   1.410       .  A
C1717      C1720   1.452       .  S
C1718      C1722   1.452       .  S
C1719      N1726   1.157       .  T
C1720      N1727   1.158       .  T
C1721      N1725   1.157       .  T
C1722      N1728   1.157       .  T
C1723      N1732   1.158       .  T
C1724      N1730   1.158       .  T
C1733      C1734   1.411       .  A
C1733      C1738   1.409       .  A
C1733      C1751   1.451       .  S
C1734      C1739   1.499       .  S
C1734      C1735   1.412       .  A
C1735      C1736   1.414       .  A
C1735      C1740   1.450       .  S
C1736      C1737   1.416       .  A
C1736      C1752   1.450       .  S
C1737      C1738   1.416       .  A
C1738      C1741   1.453       .  S
C1739      C1742   1.409       .  A
C1739      C1746   1.410       .  A
C1740      N1757   1.157       .  T
C1741      N1759   1.157       .  T
C1742      C1743   1.411       .  A
C1742      C1747   1.451       .  S
C1743      C1744   1.420       .  A
C1743      C1749   1.452   1_655  S
C1744      C1745   1.419       .  A
C1745      C1746   1.413       .  A
C1745      C1748   1.451       .  S
C1746      C1750   1.451       .  S
C1747      N1754   1.158       .  T
C1748      N1755   1.158       .  T
C1749      N1753   1.157       .  T
C1750      N1756   1.157       .  T
C1751      N1760   1.157       .  T
C1752      N1758   1.158       .  T
C1761      C1762   1.409       .  A
C1761      C1766   1.410       .  A
C1761      C1779   1.451       .  S
C1762      C1767   1.493       .  S
C1762      C1763   1.411       .  A
C1763      C1764   1.410       .  A
C1763      C1768   1.452       .  S
C1764      C1765   1.413       .  A
C1764      C1780   1.450       .  S
C1765      C1766   1.415       .  A
C1766      C1769   1.451       .  S
C1767      C1770   1.409       .  A
C1767      C1774   1.410       .  A
C1768      N1785   1.157       .  T
C1769      N1787   1.157       .  T
C1770      C1771   1.409       .  A
C1770      C1775   1.451       .  S
C1771      C1772   1.417       .  A
C1771      C1777   1.451       .  S
C1772      C1773   1.418       .  A
C1773      C1774   1.409       .  A
C1773      C1776   1.452       .  S
C1774      C1778   1.452       .  S
C1775      N1782   1.157       .  T
C1776      N1783   1.157       .  T
C1777      N1781   1.158       .  T
C1778      N1784   1.157       .  T
C1779      N1788   1.158       .  T
C1780      N1786   1.157       .  T
C1789      C1790   1.409       .  A
C1789      C1794   1.407       .  A
C1789      C1807   1.451       .  S
C1790      C1795   1.490       .  S
C1790      C1791   1.410       .  A
C1791      C1792   1.410       .  A
C1791      C1796   1.451       .  S
C1792      C1793   1.413       .  A
C1792      C1808   1.450       .  S
C1793      C1794   1.414       .  A
C1794      C1797   1.452       .  S
C1795      C1798   1.409       .  A
C1795      C1802   1.411       .  A
C1796      N1813   1.157       .  T
C1797      N1815   1.157       .  T
C1798      C1799   1.407       .  A
C1798      C1803   1.451       .  S
C1799      C1800   1.415       .  A
C1799      C1805   1.452       .  S
C1800      C1801   1.413       .  A
C1801      C1802   1.409       .  A
C1801      C1804   1.451       .  S
C1802      C1806   1.451       .  S
C1803      N1810   1.157       .  T
C1804      N1811   1.157       .  T
C1805      N1809   1.158       .  T
C1806      N1812   1.158       .  T
C1807      N1816   1.157       .  T
C1808      N1814   1.158       .  T
C1817      C1818   1.411       .  A
C1817      C1822   1.413       .  A
C1817      C1835   1.450       .  S
C1818      C1823   1.498       .  S
C1818      C1819   1.410       .  A
C1819      C1820   1.410       .  A
C1819      C1824   1.451       .  S
C1820      C1821   1.418       .  A
C1820      C1836   1.451       .  S
C1821      C1822   1.416       .  A
C1822      C1825   1.450       .  S
C1823      C1826   1.411       .  A
C1823      C1830   1.412       .  A
C1824      N1841   1.157       .  T
C1825      N1843   1.157       .  T
C1826      C1827   1.408       .  A
C1826      C1831   1.452       .  S
C1827      C1828   1.413       .  A
C1827      C1833   1.451       .  S
C1828      C1829   1.414       .  A
C1829      C1830   1.414       .  A
C1829      C1832   1.451       .  S
C1830      C1834   1.449       .  S
C1831      N1838   1.157       .  T
C1832      N1839   1.158       .  T
C1833      N1837   1.157       .  T
C1834      N1840   1.157       .  T
C1835      N1844   1.157       .  T
C1836      N1842   1.157       .  T
C1845      C1846   1.407       .  A
C1845      C1850   1.409       .  A
C1845      C1863   1.451       .  S
C1846      C1851   1.492       .  S
C1846      C1847   1.409       .  A
C1847      C1848   1.410   1_455  A
C1847      C1852   1.452       .  S
C1848      C1849   1.418       .  A
C1848      C1864   1.451       .  S
C1849      C1850   1.418   1_655  A
C1850      C1853   1.452       .  S
C1851      C1854   1.409       .  A
C1851      C1858   1.410       .  A
C1852      N1869   1.157       .  T
C1853      N1871   1.157       .  T
C1854      C1855   1.411       .  A
C1854      C1859   1.450       .  S
C1855      C1856   1.415       .  A
C1855      C1861   1.450       .  S
C1856      C1857   1.415       .  A
C1857      C1858   1.407       .  A
C1857      C1860   1.452       .  S
C1858      C1862   1.452       .  S
C1859      N1866   1.157       .  T
C1860      N1867   1.157       .  T
C1861      N1865   1.158       .  T
C1862      N1868   1.158       .  T
C1863      N1872   1.157       .  T
C1864      N1870   1.158       .  T
C1873      C1874   1.411       .  A
C1873      C1878   1.411       .  A
C1873      C1891   1.451       .  S
C1874      C1879   1.498       .  S
C1874      C1875   1.411       .  A
C1875      C1876   1.410       .  A
C1875      C1880   1.451       .  S
C1876      C1877   1.416       .  A
C1876      C1892   1.452       .  S
C1877      C1878   1.416       .  A
C1878      C1881   1.451       .  S
C1879      C1882   1.410       .  A
C1879      C1886   1.410       .  A
C1880      N1897   1.157       .  T
C1881      N1899   1.157       .  T
C1882      C1883   1.412       .  A
C1882      C1887   1.451       .  S
C1883      C1884   1.419       .  A
C1883      C1889   1.452       .  S
C1884      C1885   1.418       .  A
C1885      C1886   1.411       .  A
C1885      C1888   1.450       .  S
C1886      C1890   1.452       .  S
C1887      N1894   1.158       .  T
C1888      N1895   1.158       .  T
C1889      N1893   1.157       .  T
C1890      N1896   1.157       .  T
C1891      N1900   1.157       .  T
C1892      N1898   1.158       .  T
C1901      C1902   1.408       .  A
C1901      C1906   1.410       .  A
C1901      C1919   1.451       .  S
C1902      C1907   1.495       .  S
C1902      C1903   1.410       .  A
C1903      C1904   1.411       .  A
C1903      C1908   1.450       .  S
C1904      C1905   1.416       .  A
C1904      C1920   1.451       .  S
C1905      C1906   1.419       .  A
C1906      C1909   1.451       .  S
C1907      C1910   1.410       .  A
C1907      C1914   1.409       .  A
C1908      N1925   1.158       .  T
C1909      N1927   1.158       .  T
C1910      C1911   1.413       .  A
C1910      C1915   1.450       .  S
C1911      C1912   1.417       .  A
C1911      C1917   1.450       .  S
C1912      C1913   1.416       .  A
C1913      C1914   1.408       .  A
C1913      C1916   1.452       .  S
C1914      C1918   1.452       .  S
C1915      N1922   1.157       .  T
C1916      N1923   1.158       .  T
C1917      N1921   1.157       .  T
C1918      N1924   1.157       .  T
C1919      N1928   1.157       .  T
C1920      N1926   1.157       .  T
C1929      C1930   1.407       .  A
C1929      C1934   1.408       .  A
C1929      C1947   1.452       .  S
C1930      C1935   1.491       .  S
C1930      C1931   1.408       .  A
C1931      C1932   1.410       .  A
C1931      C1936   1.451       .  S
C1932      C1933   1.418       .  A
C1932      C1948   1.450       .  S
C1933      C1934   1.421       .  A
C1934      C1937   1.453       .  S
C1935      C1938   1.408       .  A
C1935      C1942   1.408       .  A
C1936      N1953   1.157       .  T
C1937      N1955   1.157       .  T
C1938      C1939   1.410       .  A
C1938      C1943   1.451       .  S
C1939      C1940   1.418       .  A
C1939      C1945   1.451       .  S
C1940      C1941   1.418       .  A
C1941      C1942   1.409       .  A
C1941      C1944   1.451       .  S
C1942      C1946   1.451       .  S
C1943      N1950   1.157       .  T
C1944      N1951   1.157       .  T
C1945      N1949   1.158       .  T
C1946      N1952   1.158       .  T
C1947      N1956   1.158       .  T
C1948      N1954   1.158       .  T
C1957      C1958   1.412   1_556  A
C1957      C1962   1.411       .  A
C1957      C1975   1.451       .  S
C1958      C1963   1.500       .  S
C1958      C1959   1.410       .  A
C1959      C1960   1.411       .  A
C1959      C1964   1.450       .  S
C1960      C1961   1.418       .  A
C1960      C1976   1.452       .  S
C1961      C1962   1.415   1_554  A
C1962      C1965   1.451       .  S
C1963      C1966   1.411       .  A
C1963      C1970   1.410       .  A
C1964      N1981   1.157       .  T
C1965      N1983   1.158       .  T
C1966      C1967   1.415       .  A
C1966      C1971   1.450       .  S
C1967      C1968   1.419       .  A
C1967      C1973   1.451       .  S
C1968      C1969   1.418       .  A
C1969      C1970   1.411       .  A
C1969      C1972   1.451       .  S
C1970      C1974   1.452       .  S
C1971      N1978   1.158       .  T
C1972      N1979   1.158       .  T
C1973      N1977   1.157       .  T
C1974      N1980   1.157       .  T
C1975      N1984   1.157       .  T
C1976      N1982   1.157       .  T
C1985      C1986   1.409       .  A
C1985      C1990   1.412       .  A
C1985      C2003   1.452       .  S
C1986      C1991   1.495       .  S
C1986      C1987   1.406       .  A
C1987      C1988   1.411       .  A
C1987      C1992   1.451       .  S
C1988      C1989   1.421       .  A
C1988      C2004   1.450       .  S
C1989      C1990   1.421       .  A
C1990      C1993   1.451       .  S
C1991      C1994   1.411       .  A
C1991      C1998   1.409       .  A
C1992      N2009   1.157       .  T
C1993      N2011   1.157       .  T
C1994      C1995   1.414       .  A
C1994      C1999   1.450       .  S
C1995      C1996   1.414       .  A
C1995      C2001   1.449       .  S
C1996      C1997   1.416       .  A
C1997      C1998   1.406       .  A
C1997      C2000   1.453       .  S
C1998      C2002   1.451       .  S
C1999      N2006   1.157       .  T
C2000      N2007   1.157       .  T
C2001      N2005   1.158       .  T
C2002      N2008   1.157       .  T
C2003      N2012   1.158       .  T
C2004      N2010   1.158   1_556  T
C2013      C2014   1.410       .  A
C2013      C2018   1.409       .  A
C2013      C2031   1.450       .  S
C2014      C2019   1.496       .  S
C2014      C2015   1.411       .  A
C2015      C2016   1.410       .  A
C2015      C2020   1.451       .  S
C2016      C2017   1.415       .  A
C2016      C2032   1.451       .  S
C2017      C2018   1.416       .  A
C2018      C2021   1.453       .  S
C2019      C2022   1.406       .  A
C2019      C2026   1.406       .  A
C2020      N2037   1.157       .  T
C2021      N2039   1.157       .  T
C2022      C2023   1.411       .  A
C2022      C2027   1.452       .  S
C2023      C2024   1.427       .  A
C2023      C2029   1.452       .  S
C2024      C2025   1.426       .  A
C2025      C2026   1.412       .  A
C2025      C2028   1.450       .  S
C2026      C2030   1.453       .  S
C2027      N2034   1.158       .  T
C2028      N2035   1.158       .  T
C2029      N2033   1.157       .  T
C2030      N2036   1.157       .  T
C2031      N2040   1.158       .  T
C2032      N2038   1.158       .  T
C2041      C2042   1.408       .  A
C2041      C2046   1.409   1_565  A
C2041      C2059   1.452       .  S
C2042      C2047   1.495       .  S
C2042      C2043   1.410       .  A
C2043      C2044   1.413   1_565  A
C2043      C2048   1.451       .  S
C2044      C2045   1.418       .  A
C2044      C2060   1.450       .  S
C2045      C2046   1.418       .  A
C2046      C2049   1.451       .  S
C2047      C2050   1.411       .  A
C2047      C2054   1.409       .  A
C2048      N2065   1.157       .  T
C2049      N2067   1.157       .  T
C2050      C2051   1.411       .  A
C2050      C2055   1.450       .  S
C2051      C2052   1.416       .  A
C2051      C2057   1.452       .  S
C2052      C2053   1.418       .  A
C2053      C2054   1.409       .  A
C2053      C2056   1.451       .  S
C2054      C2058   1.452       .  S
C2055      N2062   1.158       .  T
C2056      N2063   1.158       .  T
C2057      N2061   1.157       .  T
C2058      N2064   1.157       .  T
C2059      N2068   1.157       .  T
C2060      N2066   1.158       .  T
C2069      C2070   1.410       .  A
C2069      C2074   1.413       .  A
C2069      C2087   1.450       .  S
C2070      C2075   1.497       .  S
C2070      C2071   1.410       .  A
C2071      C2072   1.411       .  A
C2071      C2076   1.452       .  S
C2072      C2073   1.416       .  A
C2072      C2088   1.451       .  S
C2073      C2074   1.416       .  A
C2074      C2077   1.451       .  S
C2075      C2078   1.408       .  A
C2075      C2082   1.410       .  A
C2076      N2093   1.157       .  T
C2077      N2095   1.157       .  T
C2078      C2079   1.407       .  A
C2078      C2083   1.453       .  S
C2079      C2080   1.420       .  A
C2079      C2085   1.452       .  S
C2080      C2081   1.419       .  A
C2081      C2082   1.416       .  A
C2081      C2084   1.451       .  S
C2082      C2086   1.450       .  S
C2083      N2090   1.157       .  T
C2084      N2091   1.157       .  T
C2085      N2089   1.158       .  T
C2086      N2092   1.158       .  T
C2087      N2096   1.157       .  T
C2088      N2094   1.158       .  T
C2097      C2098   1.409       .  A
C2097      C2102   1.409       .  A
C2097      C2115   1.451       .  S
C2098      C2103   1.491       .  S
C2098      C2099   1.408       .  A
C2099      C2100   1.409       .  A
C2099      C2104   1.450       .  S
C2100      C2101   1.416       .  A
C2100      C2116   1.451       .  S
C2101      C2102   1.417       .  A
C2102      C2105   1.451       .  S
C2103      C2106   1.410       .  A
C2103      C2110   1.409       .  A
C2104      N2121   1.157       .  T
C2105      N2123   1.158       .  T
C2106      C2107   1.409       .  A
C2106      C2111   1.451       .  S
C2107      C2108   1.414       .  A
C2107      C2113   1.451       .  S
C2108      C2109   1.414       .  A
C2109      C2110   1.410       .  A
C2109      C2112   1.451       .  S
C2110      C2114   1.451       .  S
C2111      N2118   1.158       .  T
C2112      N2119   1.158       .  T
C2113      N2117   1.157       .  T
C2114      N2120   1.157       .  T
C2115      N2124   1.157       .  T
C2116      N2122   1.157       .  T
C2125      C2126   1.409       .  A
C2125      C2130   1.407       .  A
C2125      C2143   1.451       .  S
C2126      C2131   1.495       .  S
C2126      C2127   1.410       .  A
C2127      C2128   1.413       .  A
C2127      C2132   1.451       .  S
C2128      C2129   1.418       .  A
C2128      C2144   1.451       .  S
C2129      C2130   1.418       .  A
C2130      C2133   1.452       .  S
C2131      C2134   1.409       .  A
C2131      C2138   1.412   1_554  A
C2132      N2149   1.157       .  T
C2133      N2151   1.157       .  T
C2134      C2135   1.409       .  A
C2134      C2139   1.452       .  S
C2135      C2136   1.417   1_554  A
C2135      C2141   1.450       .  S
C2136      C2137   1.412       .  A
C2137      C2138   1.412       .  A
C2137      C2140   1.451       .  S
C2138      C2142   1.450       .  S
C2139      N2146   1.157       .  T
C2140      N2147   1.157       .  T
C2141      N2145   1.157       .  T
C2142      N2148   1.158       .  T
C2143      N2152   1.157       .  T
C2144      N2150   1.158       .  T
C2153      C2154   1.409       .  A
C2153      C2158   1.407       .  A
C2153      C2171   1.453       .  S
C2154      C2159   1.495       .  S
C2154      C2155   1.411       .  A
C2155      C2156   1.413       .  A
C2155      C2160   1.450       .  S
C2156      C2157   1.416       .  A
C2156      C2172   1.451       .  S
C2157      C2158   1.418       .  A
C2158      C2161   1.452       .  S
C2159      C2162   1.409       .  A
C2159      C2166   1.410       .  A
C2160      N2177   1.158       .  T
C2161      N2179   1.158       .  T
C2162      C2163   1.410       .  A
C2162      C2167   1.452       .  S
C2163      C2164   1.418       .  A
C2163      C2169   1.451       .  S
C2164      C2165   1.416       .  A
C2165      C2166   1.411       .  A
C2165      C2168   1.451       .  S
C2166      C2170   1.450       .  S
C2167      N2174   1.157       .  T
C2168      N2175   1.157       .  T
C2169      N2173   1.158       .  T
C2170      N2176   1.158       .  T
C2171      N2180   1.157       .  T
C2172      N2178   1.157       .  T
C2181      C2182   1.411       .  A
C2181      C2186   1.413       .  A
C2181      C2199   1.450       .  S
C2182      C2187   1.498       .  S
C2182      C2183   1.410       .  A
C2183      C2184   1.411       .  A
C2183      C2188   1.451       .  S
C2184      C2185   1.417       .  A
C2184      C2200   1.452       .  S
C2185      C2186   1.415       .  A
C2186      C2189   1.450       .  S
C2187      C2190   1.410       .  A
C2187      C2194   1.410       .  A
C2188      N2205   1.157       .  T
C2189      N2207   1.157       .  T
C2190      C2191   1.413       .  A
C2190      C2195   1.450       .  S
C2191      C2192   1.417   1_455  A
C2191      C2197   1.451       .  S
C2192      C2193   1.419       .  A
C2193      C2194   1.410   1_655  A
C2193      C2196   1.452       .  S
C2194      C2198   1.452       .  S
C2195      N2202   1.157       .  T
C2196      N2203   1.157       .  T
C2197      N2201   1.158       .  T
C2198      N2204   1.157       .  T
C2199      N2208   1.157       .  T
C2200      N2206   1.158       .  T
