geometry optimzed in LAMMPS
_audit_creation_date              2020-12-01 
_audit_creation_method            'lammps2cif' 
_symmetry_space_group_name_H-M    'P1' 
_symmetry_Int_Tables_number       1 
_symmetry_cell_setting            triclinic 
loop_ 
_symmetry_equiv_pos_as_xyz 
  x,y,z 
_cell_length_a                    30.97074291 
_cell_length_b                    30.834913809918906 
_cell_length_c                    30.90172076012051 
_cell_angle_alpha                 89.8978604658984 
_cell_angle_beta                  89.83202081793002 
_cell_angle_gamma                 89.89059861850978 
loop_ 
_atom_site_label 
_atom_site_type_symbol 
_atom_site_fract_x 
_atom_site_fract_y 
_atom_site_fract_z 
_atom_site_charge 
O1          O  0.76459524  0.45485253  0.82473749    -0.73900
O2          O  0.82771663  0.54320182  0.76271014    -0.74000
O3          O  0.76441407  0.54282652  0.82497238    -0.74000
O4          O  0.82779194  0.45503362  0.76254160    -0.74100
O5          O  0.77691162  0.45557254  0.71169739    -0.74000
O6          O  0.71437267  0.54272251  0.77329698    -0.74000
O7          O  0.77667410  0.54321913  0.71204351    -0.73900
O8          O  0.71469318  0.45510290  0.77292487    -0.74000
Ni9        Ni  0.79801847  0.49897494  0.79564047     1.25400
Ni10       Ni  0.74399715  0.49916916  0.74075154     1.25400
C11         C  0.72900985  0.44063310  0.80900933     0.88300
C12         C  0.81239403  0.55771130  0.72692535     0.88200
C13         C  0.72868203  0.55701853  0.80938002     0.88200
C14         C  0.81256353  0.44086079  0.72666636     0.88400
O15         O  0.51146298  0.65620516  0.77337649    -0.73900
O16         O  0.59814190  0.71777816  0.71046176    -0.74000
O17         O  0.59892869  0.65585461  0.77238281    -0.74000
O18         O  0.51085987  0.71850422  0.71178359    -0.74100
O19         O  0.51128881  0.76984210  0.76245520    -0.74000
O20         O  0.59943972  0.70677488  0.82348431    -0.74000
O21         O  0.59858479  0.76939594  0.76090028    -0.73900
O22         O  0.51200821  0.70684564  0.82476474    -0.74000
Ni23       Ni  0.55482220  0.68531613  0.74024363     1.25400
Ni24       Ni  0.55537429  0.74005216  0.79477039     1.25400
C25         C  0.49751898  0.67107051  0.80946965     0.88300
C26         C  0.61238160  0.75387241  0.72493269     0.88200
C27         C  0.61356097  0.67081202  0.80811800     0.88200
C28         C  0.49670490  0.75459342  0.72681639     0.88400
O29         O  0.82488168  0.70657686  0.50943247    -0.73900
O30         O  0.76194900  0.76954905  0.59664601    -0.74000
O31         O  0.82469139  0.70710218  0.59702870    -0.74000
O32         O  0.76243639  0.76927718  0.50925394    -0.74100
O33         O  0.71201915  0.71779030  0.50963135    -0.74000
O34         O  0.77388421  0.65599671  0.59746533    -0.74000
O35         O  0.71183553  0.71773399  0.59699779    -0.73900
O36         O  0.77376282  0.65577213  0.50982867    -0.74000
Ni37       Ni  0.79536034  0.73995853  0.55308872     1.25400
Ni38       Ni  0.74114254  0.68502934  0.55348858     1.25400
C39         C  0.80955579  0.67066384  0.49532622     0.88300
C40         C  0.72620079  0.75403169  0.61085484     0.88200
C41         C  0.80965390  0.67119646  0.61159468     0.88200
C42         C  0.72664813  0.75395706  0.49530840     0.88400
C43         C  0.42674140  0.84763623  0.43051634     0.03600
C44         C  0.45608214  0.82516555  0.40378827    -0.12500
C45         C  0.46133464  0.78004340  0.40790139     0.01100
C46         C  0.43635175  0.75738363  0.43832493    -0.11000
C47         C  0.40633619  0.77903321  0.46450494     0.03600
C48         C  0.40148297  0.82408061  0.46028511    -0.10500
H49         H  0.47642996  0.84287557  0.38139437     0.09200
H50         H  0.44029769  0.72260781  0.44168024     0.06700
H51         H  0.37860231  0.84083484  0.48089983     0.06600
C52         C  0.42460425  0.15489303  0.42641211     0.03600
C53         C  0.39950354  0.17815372  0.45650258    -0.12500
C54         C  0.40559391  0.22285137  0.46231218     0.01100
C55         C  0.43653097  0.24446877  0.43712153    -0.11000
C56         C  0.46114130  0.22212357  0.40615218     0.03600
C57         C  0.45472448  0.17737847  0.40063215    -0.10500
H58         H  0.37588570  0.16138004  0.47622499     0.09200
H59         H  0.44141884  0.27896029  0.44159455     0.06700
H60         H  0.47477485  0.15981241  0.37785440     0.06600
O61         O  0.59748910  0.29145187  0.28354698    -0.73900
O62         O  0.50955483  0.22959834  0.34604207    -0.74000
O63         O  0.50993285  0.29180811  0.28340404    -0.74000
O64         O  0.59707406  0.22938683  0.34656834    -0.74100
O65         O  0.59667329  0.28123529  0.39674637    -0.74000
O66         O  0.50980224  0.34294544  0.33430035    -0.74000
O67         O  0.50928282  0.28140883  0.39626263    -0.73900
O68         O  0.59724272  0.34258119  0.33444460    -0.74000
Ni69       Ni  0.55353250  0.25868081  0.31303671     1.25400
Ni70       Ni  0.55324729  0.31380636  0.36718126     1.25400
C71         C  0.61184425  0.32729747  0.29874735     0.88300
C72         C  0.49489521  0.24544683  0.38149268     0.88200
C73         C  0.49547431  0.32772701  0.29861574     0.88200
C74         C  0.61123223  0.24519844  0.38218442     0.88400
C75         C  0.68110001  0.84681947  0.42779315     0.03600
C76         C  0.65004558  0.82439422  0.40337011    -0.12500
C77         C  0.64401585  0.77964878  0.40876352     0.01100
C78         C  0.66937132  0.75706305  0.43884035    -0.11000
C79         C  0.70127897  0.77839461  0.46277865     0.03600
C80         C  0.70729459  0.82321074  0.45676601    -0.10500
H81         H  0.62923252  0.84180257  0.38127992     0.09200
H82         H  0.66458310  0.72253147  0.44326366     0.06700
H83         H  0.73181215  0.83962414  0.47540016     0.06600
C84         C  0.68134489  0.15460256  0.42776931     0.03600
C85         C  0.65066511  0.17695757  0.40255745    -0.12500
C86         C  0.64480401  0.22191996  0.40717350     0.01100
C87         C  0.67011797  0.24465304  0.43717323    -0.11000
C88         C  0.70169732  0.22327117  0.46173810     0.03600
C89         C  0.70739588  0.17840790  0.45648876    -0.10500
H90         H  0.62991011  0.15940190  0.38066500     0.09200
H91         H  0.66548941  0.27926171  0.44115191     0.06700
H92         H  0.73155887  0.16200035  0.47572713     0.06600
O93         O  0.77521878  0.34460760  0.50966035    -0.73900
O94         O  0.71252629  0.28252522  0.59637559    -0.74000
O95         O  0.77490612  0.34350125  0.59725707    -0.74000
O96         O  0.71271160  0.28355068  0.50881492    -0.74100
O97         O  0.76277819  0.23153199  0.50839057    -0.74000
O98         O  0.82559426  0.29208469  0.59656069    -0.74000
O99         O  0.76257726  0.23047008  0.59590546    -0.73900
O100        O  0.82594487  0.29321428  0.50897235    -0.74000
Ni101      Ni  0.74211622  0.31536496  0.55302798     1.25400
Ni102      Ni  0.79605417  0.25995684  0.55241962     1.25400
C103        C  0.81090897  0.32939468  0.49506037     0.88300
C104        C  0.72698999  0.24619165  0.61035430     0.88200
C105        C  0.81054584  0.32787509  0.61141539     0.88200
C106        C  0.72713115  0.24737390  0.49435564     0.88400
C107        C  0.67645067  0.84646532  0.67543587     0.03600
C108        C  0.70325525  0.82349892  0.64651219    -0.12500
C109        C  0.70046868  0.77814655  0.64325281     0.01100
C110        C  0.67083486  0.75576326  0.66939528    -0.11000
C111        C  0.64464160  0.77792676  0.69910637     0.03600
C112        C  0.64784991  0.82315990  0.70222584    -0.10500
H113        H  0.72486844  0.84082295  0.62505313     0.09200
H114        H  0.66826978  0.72081678  0.66674990     0.06700
H115        H  0.62728276  0.84015565  0.72495172     0.06600
C116        C  0.68061687  0.15408547  0.67784792     0.03600
C117        C  0.70653855  0.17718581  0.64825938    -0.12500
C118        C  0.70180692  0.22223616  0.64334022     0.01100
C119        C  0.67122359  0.24428867  0.66870432    -0.11000
C120        C  0.64605937  0.22209933  0.69932880     0.03600
C121        C  0.65125784  0.17710929  0.70404536    -0.10500
H122        H  0.72893489  0.16001951  0.62747595     0.09200
H123        H  0.66720420  0.27899777  0.66482334     0.06700
H124        H  0.63158545  0.16003722  0.72748917     0.09000
C125        C  0.42626289  0.84624191  0.68260208     0.03600
C126        C  0.45693543  0.82354991  0.70774561    -0.12500
C127        C  0.46315997  0.77860680  0.70229046     0.01100
C128        C  0.43830454  0.75646301  0.67159088    -0.11000
C129        C  0.40695093  0.77814888  0.64708942     0.03600
C130        C  0.40065312  0.82273864  0.65325805    -0.10500
H131        H  0.47732427  0.84081642  0.73020242     0.09200
H132        H  0.44316821  0.72197099  0.66693807     0.06700
H133        H  0.37643367  0.83916643  0.63412723     0.06600
C134        C  0.42690612  0.15435363  0.68175754     0.03600
C135        C  0.45731659  0.17716424  0.70677314    -0.12500
C136        C  0.46332673  0.22196387  0.70121563     0.01100
C137        C  0.43832848  0.24418174  0.67050461    -0.11000
C138        C  0.40715353  0.22243793  0.64587221     0.03600
C139        C  0.40125654  0.17766903  0.65206552    -0.10500
H140        H  0.47774519  0.15999786  0.72939153     0.09200
H141        H  0.44299336  0.27870731  0.66591752     0.06700
H142        H  0.37725399  0.16108842  0.63293625     0.06600
O143        O  0.51163035  0.29115358  0.82431977    -0.73900
O144        O  0.59906136  0.22986482  0.76048707    -0.74000
O145        O  0.59924297  0.29170261  0.82342312    -0.74000
O146        O  0.51161617  0.22952659  0.76128712    -0.74100
O147        O  0.51106921  0.28161576  0.71118966    -0.74000
O148        O  0.59873977  0.34308762  0.77259625    -0.74000
O149        O  0.59851464  0.28189592  0.71030949    -0.73900
O150        O  0.51115344  0.34262355  0.77359217    -0.74000
Ni151      Ni  0.55544045  0.25869538  0.79423388     1.25400
Ni152      Ni  0.55485542  0.31410515  0.74019621     1.25400
C153        C  0.49680162  0.32696980  0.80926391     0.88300
C154        C  0.61306449  0.24576572  0.72474838     0.88200
C155        C  0.61344592  0.32770006  0.80815164     0.88200
C156        C  0.49690245  0.24545187  0.72588101     0.88400
O157        O  0.33603864  0.34469502  0.59848617    -0.73900
O158        O  0.39670214  0.28251630  0.51033135    -0.74000
O159        O  0.33553040  0.34494419  0.51093408    -0.74000
O160        O  0.39731016  0.28234438  0.59800834    -0.74100
O161        O  0.34657283  0.23118043  0.59833125    -0.74000
O162        O  0.28396577  0.29460383  0.51140332    -0.74000
O163        O  0.34573945  0.23155267  0.51065093    -0.73900
O164        O  0.28471593  0.29408603  0.59885508    -0.74000
Ni165      Ni  0.36819385  0.31537686  0.55442282     1.25400
Ni166      Ni  0.31340857  0.26101042  0.55482712     1.25400
C167        C  0.30023795  0.32981601  0.61304547     0.88300
C168        C  0.38137002  0.24678643  0.49596526     0.88200
C169        C  0.29948024  0.33035947  0.49693709     0.88200
C170        C  0.38233153  0.24643815  0.61254097     0.88400
C171        C  0.68124191  0.37236651  0.90018321     0.03600
C172        C  0.70759013  0.40205203  0.87760157    -0.12500
C173        C  0.70342486  0.40748967  0.83260076     0.01100
C174        C  0.67267675  0.38274380  0.81020965    -0.11000
C175        C  0.64682561  0.35232699  0.83194169     0.03600
C176        C  0.65170676  0.34697262  0.87671913    -0.10500
H177        H  0.72998493  0.42239899  0.89503184     0.09200
H178        H  0.66896659  0.38701651  0.77560355     0.06700
H179        H  0.63157984  0.32358753  0.89331061     0.06600
C180        C  0.68195678  0.37082087  0.20714779     0.03600
C181        C  0.65192511  0.34549537  0.23034392    -0.12500
C182        C  0.64542045  0.35184994  0.27488447     0.01100
C183        C  0.66998984  0.38322553  0.29648184    -0.11000
C184        C  0.70100553  0.40795519  0.27432606     0.03600
C185        C  0.70698485  0.40140009  0.22973750    -0.10500
H186        H  0.63282106  0.32138936  0.21376688     0.09200
H187        H  0.66511192  0.38825466  0.33084780     0.06700
H188        H  0.72981120  0.42158628  0.21247097     0.06600
O189        O  0.76058335  0.54441456  0.28221849    -0.73900
O190        O  0.82391413  0.45631069  0.34360824    -0.74000
O191        O  0.76102420  0.45640274  0.28187640    -0.74000
O192        O  0.82366515  0.54392213  0.34409106    -0.74100
O193        O  0.77278059  0.54340920  0.39525902    -0.74000
O194        O  0.71081620  0.45610139  0.33369398    -0.74000
O195        O  0.77295874  0.45587965  0.39470727    -0.73900
O196        O  0.71050871  0.54396951  0.33416754    -0.74000
Ni197      Ni  0.79409288  0.50029639  0.31101883     1.25400
Ni198      Ni  0.73999824  0.49983492  0.36619483     1.25400
C199        C  0.72501483  0.55871102  0.29818137     0.88300
C200        C  0.80891744  0.44190127  0.37958210     0.88200
C201        C  0.72558132  0.44174654  0.29769271     0.88200
C202        C  0.80867041  0.55769212  0.38029199     0.88400
C203        C  0.68101932  0.62542053  0.90050249     0.03600
C204        C  0.70726661  0.59555900  0.87795031    -0.12500
C205        C  0.70301467  0.59010786  0.83298783     0.01100
C206        C  0.67232403  0.61505737  0.81054090    -0.11000
C207        C  0.64667509  0.64575473  0.83214091     0.03600
C208        C  0.65156351  0.65104972  0.87699360    -0.10500
H209        H  0.72972764  0.57517098  0.89545174     0.09200
H210        H  0.66859341  0.61082110  0.77594944     0.06700
H211        H  0.63166513  0.67465445  0.89358593     0.06600
C212        C  0.67828767  0.62859335  0.20783406     0.03600
C213        C  0.64938652  0.65459801  0.23166781    -0.12500
C214        C  0.64475307  0.64923110  0.27655949     0.01100
C215        C  0.67000065  0.61803171  0.29788479    -0.11000
C216        C  0.69992871  0.59251205  0.27503190     0.03600
C217        C  0.70406640  0.59813922  0.23003418    -0.10500
H218        H  0.62956714  0.67836332  0.21520535     0.09200
H219        H  0.66641527  0.61367806  0.33251605     0.06700
H220        H  0.72590236  0.57728144  0.21225140     0.06600
C221        C  0.42989144  0.62548937  0.90160145     0.03600
C222        C  0.40350642  0.59616120  0.87914252    -0.12500
C223        C  0.40814131  0.59072127  0.83433861     0.01100
C224        C  0.43883378  0.61567858  0.81189624    -0.11000
C225        C  0.46453035  0.64608977  0.83360728     0.03600
C226        C  0.45976842  0.65091157  0.87849550    -0.10500
H227        H  0.38095424  0.57589955  0.89676167     0.09200
H228        H  0.44259886  0.61155896  0.77727041     0.06700
H229        H  0.47996429  0.67384654  0.89551036     0.06600
C230        C  0.43079882  0.62699847  0.20743537     0.03600
C231        C  0.45978585  0.65311074  0.23065800    -0.12500
C232        C  0.46362584  0.64879114  0.27564373     0.01100
C233        C  0.43787117  0.61833581  0.29739434    -0.11000
C234        C  0.40797814  0.59280183  0.27486921     0.03600
C235        C  0.40422256  0.59765313  0.22989365    -0.10500
H236        H  0.48021529  0.67598301  0.21362358     0.09200
H237        H  0.44102735  0.61455802  0.33211767     0.06700
H238        H  0.38240468  0.57681854  0.21221576     0.06600
O239        O  0.59740208  0.65909818  0.33666478    -0.73900
O240        O  0.50886189  0.72033575  0.39759074    -0.74000
O241        O  0.51011344  0.65881879  0.33576308    -0.74000
O242        O  0.59606963  0.72045070  0.39872050    -0.74100
O243        O  0.59660340  0.77221088  0.34824447    -0.74000
O244        O  0.51021183  0.71002572  0.28472222    -0.74000
O245        O  0.50925796  0.77232297  0.34735644    -0.73900
O246        O  0.59754324  0.71018778  0.28552444    -0.74000
Ni247      Ni  0.55307782  0.68791578  0.36894607     1.25400
Ni248      Ni  0.55341536  0.74308396  0.31461195     1.25400
C249        C  0.61184190  0.67424940  0.30082734     0.88300
C250        C  0.49464511  0.75648862  0.38286394     0.88200
C251        C  0.49610860  0.67394687  0.29983915     0.88200
C252        C  0.61057630  0.75642133  0.38399553     0.88400
C253        C  0.42461607  0.36790970  0.90040415     0.03600
C254        C  0.45542204  0.34341632  0.87733493    -0.12500
C255        C  0.46272026  0.35089507  0.83308325     0.01100
C256        C  0.43816497  0.38256064  0.81164471    -0.11000
C257        C  0.40637177  0.40645359  0.83364788     0.03600
C258        C  0.39954881  0.39872874  0.87797786    -0.10500
H259        H  0.47449856  0.31911692  0.89388595     0.09200
H260        H  0.44365623  0.38846723  0.77749544     0.06700
H261        H  0.37615516  0.41825314  0.89529786     0.06600
C262        C  0.42640989  0.37151468  0.20690510     0.03600
C263        C  0.45616279  0.34617543  0.23031469    -0.12500
C264        C  0.46211566  0.35245433  0.27477635     0.01100
C265        C  0.43728333  0.38387554  0.29623132    -0.11000
C266        C  0.40643737  0.40873289  0.27395461     0.03600
C267        C  0.40090338  0.40216181  0.22922610    -0.10500
H268        H  0.47557514  0.32208083  0.21382067     0.09200
H269        H  0.44185375  0.38884695  0.33061849     0.06700
H270        H  0.37829218  0.42233234  0.21166037     0.06600
C271        C  0.90275575  0.37066910  0.68006634     0.03600
C272        C  0.87923053  0.34577996  0.65015843    -0.12500
C273        C  0.83466319  0.35195504  0.64496126     0.01100
C274        C  0.81339293  0.38278748  0.67066054    -0.11000
C275        C  0.83590830  0.40719427  0.70157844     0.03600
C276        C  0.88059768  0.40074568  0.70634906    -0.10500
H277        H  0.89571808  0.32226035  0.63003732     0.09200
H278        H  0.77898428  0.38771816  0.66663746     0.06700
H279        H  0.89823635  0.42073898  0.72894131     0.06600
C280        C  0.20858708  0.37369563  0.68203691     0.03600
C281        C  0.23188048  0.34864227  0.65198528    -0.12500
C282        C  0.27640170  0.35457011  0.64631333     0.01100
C283        C  0.29789425  0.38533182  0.67159050    -0.11000
C284        C  0.27560791  0.40964747  0.70288307     0.03600
C285        C  0.23093614  0.40357377  0.70810477    -0.10500
H286        H  0.21533815  0.32494205  0.63231396     0.09200
H287        H  0.33230191  0.39000749  0.66719419     0.06700
H288        H  0.21346098  0.42347086  0.73108350     0.06600
O289        O  0.33536150  0.54430465  0.71428253    -0.73900
O290        O  0.39683734  0.45539919  0.77462457    -0.74000
O291        O  0.33505788  0.45684713  0.71337789    -0.74000
O292        O  0.39751001  0.54310562  0.77506791    -0.74100
O293        O  0.34728119  0.54326417  0.82689057    -0.74000
O294        O  0.28389034  0.45649706  0.76426472    -0.74000
O295        O  0.34646810  0.45526782  0.82628467    -0.73900
O296        O  0.28426985  0.54426586  0.76524309    -0.74000
Ni297      Ni  0.36793358  0.49991823  0.74259708     1.25400
Ni298      Ni  0.31364450  0.49982344  0.79760056     1.25400
C299        C  0.29956712  0.55873905  0.72944798     0.88300
C300        C  0.38192918  0.44063875  0.81044939     0.88200
C301        C  0.29918568  0.44255693  0.72823596     0.88200
C302        C  0.38292023  0.55750044  0.81105698     0.88400
C303        C  0.90245507  0.62769665  0.67942877     0.03600
C304        C  0.87871174  0.65239403  0.64939664    -0.12500
C305        C  0.83404190  0.64660049  0.64476688     0.01100
C306        C  0.81294731  0.61595347  0.67084476    -0.11000
C307        C  0.83569189  0.59143727  0.70171497     0.03600
C308        C  0.88047828  0.59780431  0.70616064    -0.10500
H309        H  0.89511174  0.67570389  0.62893579     0.09200
H310        H  0.77848351  0.61128272  0.66716471     0.06700
H311        H  0.89836056  0.57798103  0.72885762     0.06600
C312        C  0.20858536  0.62793847  0.68320417     0.03600
C313        C  0.23105605  0.59821709  0.70963677    -0.12500
C314        C  0.27587609  0.59221717  0.70461225     0.01100
C315        C  0.29815423  0.61679345  0.67355168    -0.11000
C316        C  0.27649962  0.64717164  0.64779034     0.03600
C317        C  0.23185172  0.65280748  0.65298614    -0.10500
H318        H  0.21351860  0.57829640  0.73257351     0.09200
H319        H  0.33264753  0.61235667  0.66945739     0.06700
H320        H  0.21515210  0.67614149  0.63283612     0.06600
O321        O  0.28474548  0.70736922  0.59993745    -0.73900
O322        O  0.34606581  0.76988733  0.51204686    -0.74000
O323        O  0.28430288  0.70690665  0.51252008    -0.74000
O324        O  0.34656757  0.76980234  0.59954142    -0.74100
O325        O  0.39742138  0.71853772  0.59928839    -0.74000
O326        O  0.33591529  0.65639122  0.51229429    -0.74000
O327        O  0.39702651  0.71870378  0.51174589    -0.73900
O328        O  0.33613567  0.65661730  0.59989474    -0.74000
Ni329      Ni  0.31357359  0.74033773  0.55598652     1.25400
Ni330      Ni  0.36841725  0.68578428  0.55577477     1.25400
C331        C  0.30031823  0.67167111  0.61435982     0.88300
C332        C  0.38181728  0.75468558  0.49758613     0.88200
C333        C  0.29986859  0.67107757  0.49824832     0.88200
C334        C  0.38230673  0.75437055  0.61379162     0.88400
C335        C  0.90115842  0.62289454  0.42837705     0.03600
C336        C  0.87823531  0.64925679  0.45771891    -0.12500
C337        C  0.83330137  0.64544766  0.46220688     0.01100
C338        C  0.81106173  0.61561493  0.43635693    -0.11000
C339        C  0.83294916  0.59010867  0.40577919     0.03600
C340        C  0.87801580  0.59405368  0.40176676    -0.10500
H341        H  0.89532247  0.67208629  0.47793661     0.09200
H342        H  0.77638541  0.61241574  0.43988628     0.06700
H343        H  0.89511461  0.57311882  0.37943255     0.06600
C344        C  0.20790853  0.62252186  0.43309536     0.03600
C345        C  0.23086723  0.64851162  0.46256887    -0.12500
C346        C  0.27602187  0.64579353  0.46546612     0.01100
C347        C  0.29839350  0.61707569  0.43827492    -0.11000
C348        C  0.27635048  0.59157308  0.40798416     0.03600
C349        C  0.23114143  0.59472645  0.40529975    -0.10500
H350        H  0.21367323  0.67030746  0.48398173     0.09200
H351        H  0.33321903  0.61459461  0.44067345     0.06700
H352        H  0.21409780  0.57380363  0.38309531     0.06600
C353        C  0.90181853  0.37590178  0.42610065     0.03600
C354        C  0.87823078  0.40478796  0.39978831    -0.12500
C355        C  0.83338449  0.40927061  0.40474780     0.01100
C356        C  0.81198240  0.38408953  0.43587028    -0.11000
C357        C  0.83457023  0.35430640  0.46165386     0.03600
C358        C  0.87950186  0.35011745  0.45646118    -0.10500
H359        H  0.89481447  0.42463404  0.37609578     0.09200
H360        H  0.77737270  0.38754026  0.43991186     0.06700
H361        H  0.89713094  0.32831587  0.47749150     0.06600
C362        C  0.20811217  0.37608924  0.42845785     0.03600
C363        C  0.23109871  0.40552722  0.40221759    -0.12500
C364        C  0.27585450  0.41077322  0.40704735     0.01100
C365        C  0.29771728  0.38587724  0.43813236    -0.11000
C366        C  0.27568082  0.35549563  0.46378450     0.03600
C367        C  0.23090125  0.35059078  0.45861295    -0.10500
H368        H  0.21419021  0.42496993  0.37848098     0.09200
H369        H  0.33223174  0.38987864  0.44212177     0.06700
H370        H  0.21365493  0.32822759  0.47941185     0.06600
O371        O  0.34634183  0.45748447  0.28244589    -0.73900
O372        O  0.28498067  0.54566514  0.34592237    -0.74000
O373        O  0.34716205  0.54544227  0.28290157    -0.74000
O374        O  0.28434539  0.45795434  0.34570166    -0.74100
O375        O  0.33595742  0.45736099  0.39582085    -0.74000
O376        O  0.39782271  0.54465190  0.33401129    -0.74000
O377        O  0.33651358  0.54490378  0.39613851    -0.73900
O378        O  0.39711861  0.45697048  0.33339725    -0.74000
Ni379      Ni  0.31385577  0.50168299  0.31234640     1.25400
Ni380      Ni  0.36862959  0.50094388  0.36653251     1.25400
C381        C  0.38197482  0.44269172  0.29760685     0.88300
C382        C  0.30048168  0.55939192  0.38182415     0.88200
C383        C  0.38293769  0.55943140  0.29831459     0.88200
C384        C  0.29981607  0.44350374  0.38142095     0.88400
C385        C  0.01584317  0.35350445  0.43093476     0.20800
C386        C  0.05351588  0.32994647  0.44063347    -0.39000
C387        C  0.09266284  0.35145068  0.43238767     0.19800
C388        C  0.09404991  0.39309780  0.41577373     0.22500
C389        C  0.05648024  0.41661086  0.40617395    -0.39500
C390        C  0.01745563  0.39512379  0.41428676     0.21300
N391        N  0.97464602  0.34088995  0.43671109    -0.32800
C392        C  0.94976855  0.37477813  0.42353362    -0.10400
C393        C  0.97558460  0.40913198  0.40928667    -0.29200
N394        N  0.13499965  0.40673440  0.41161855    -0.45800
C395        C  0.16025482  0.37359233  0.42575582    -0.05100
C396        C  0.13480262  0.33848229  0.43899887    -0.22400
H397        H  0.05242857  0.29750743  0.45402277     0.19400
H398        H  0.05755508  0.44937761  0.39358985     0.18200
H399        H  0.96531780  0.44074061  0.39801131     0.14400
H400        H  0.14550003  0.30766859  0.45193152     0.14300
H401        H  0.96435090  0.31109217  0.44885067     0.32500
H402        H  0.14478281  0.43726024  0.40106032     0.35200
C403        C  0.01507503  0.63148231  0.44899102     0.20800
C404        C  0.05224424  0.64021836  0.47334483    -0.39000
C405        C  0.09171029  0.63139837  0.45274190     0.19800
C406        C  0.09398955  0.61486811  0.41123811     0.22500
C407        C  0.05677257  0.60587126  0.38697910    -0.39500
C408        C  0.01726401  0.61488725  0.40750675     0.21300
N409        N  0.97382210  0.63704765  0.46128718    -0.32800
C410        C  0.94920542  0.62385489  0.42746389    -0.10400
C411        C  0.97540433  0.60974941  0.39327307    -0.29200
N412        N  0.13533149  0.60961985  0.39890496    -0.45800
C413        C  0.15981237  0.62306380  0.43273098    -0.05100
C414        C  0.13345593  0.63674174  0.46699251    -0.22400
H415        H  0.05055488  0.65313127  0.50586278     0.19400
H416        H  0.05845994  0.59287140  0.35450534     0.18200
H417        H  0.96537226  0.59736808  0.36215582     0.14400
H418        H  0.14325953  0.64860875  0.49838420     0.14300
H419        H  0.96335875  0.64808812  0.49150124     0.32500
H420        H  0.14595306  0.59823195  0.36887878     0.35200
C421        C  0.01608907  0.62784581  0.70368440     0.20800
C422        C  0.05343278  0.62039033  0.72834691    -0.39000
C423        C  0.09286324  0.62742929  0.70693012     0.19800
C424        C  0.09486507  0.64110531  0.66432578     0.22500
C425        C  0.05757965  0.64870140  0.63969870    -0.39500
C426        C  0.01820436  0.64156639  0.66109466     0.21300
N427        N  0.97482777  0.62173924  0.71594928    -0.32800
C428        C  0.95030517  0.63170119  0.68094483    -0.10400
C429        C  0.97645264  0.64435361  0.64613657    -0.29200
N430        N  0.13604160  0.64383108  0.65093468    -0.45800
C431        C  0.16075082  0.63161273  0.68512019    -0.05100
C432        C  0.13477294  0.62122287  0.72073204    -0.22400
H433        H  0.05190698  0.60904773  0.76148006     0.19400
H434        H  0.05912773  0.65868838  0.60612428     0.18200
H435        H  0.96649686  0.65299117  0.61370221     0.14400
H436        H  0.14501753  0.61006669  0.75229794     0.14300
H437        H  0.96418014  0.61125486  0.74633358     0.32500
H438        H  0.14639641  0.65195596  0.61970180     0.35200
C439        C  0.01639933  0.37373702  0.70344636     0.20800
C440        C  0.05372167  0.38320640  0.72731096    -0.39000
C441        C  0.09307752  0.37541468  0.70606218     0.19800
C442        C  0.09501911  0.35940614  0.66432834     0.22500
C443        C  0.05776603  0.34999425  0.64045804    -0.39500
C444        C  0.01847565  0.35770171  0.66172695     0.21300
N445        N  0.97513916  0.37955264  0.71577200    -0.32800
C446        C  0.95060093  0.36714216  0.68162330    -0.10400
C447        C  0.97674589  0.35318306  0.64735564    -0.29200
N448        N  0.13611577  0.35600587  0.65094353    -0.45800
C449        C  0.16084401  0.37004005  0.68431149    -0.05100
C450        C  0.13494206  0.38238257  0.71935002    -0.22400
H451        H  0.05222046  0.39627402  0.75976568     0.19400
H452        H  0.05926632  0.33801849  0.60757725     0.18200
H453        H  0.96682356  0.34262400  0.61553427     0.14400
H454        H  0.14515527  0.39514324  0.75025380     0.14300
H455        H  0.96458178  0.39145214  0.74561878     0.32500
H456        H  0.14631758  0.34614127  0.62022574     0.35200
C457        C  0.44037731  0.35382796  0.01460531     0.20800
C458        C  0.46420462  0.34546516  0.05217750    -0.39000
C459        C  0.44340252  0.35524631  0.09125486     0.19800
C460        C  0.40209414  0.37224519  0.09298841     0.22500
C461        C  0.37818612  0.38067842  0.05527227    -0.39500
C462        C  0.39903914  0.37080530  0.01601986     0.21300
N463        N  0.45386389  0.34916600  0.97358692    -0.32800
C464        C  0.42107936  0.36351937  0.94822576    -0.10400
C465        C  0.38612839  0.37706363  0.97375543    -0.29200
N466        N  0.39028052  0.37987379  0.13425209    -0.45800
C467        C  0.42437666  0.36747756  0.15899660    -0.05100
C468        C  0.45806081  0.35199060  0.13301888    -0.22400
H469        H  0.49684314  0.33287674  0.05103980     0.19400
H470        H  0.34610967  0.39463158  0.05636739     0.18200
H471        H  0.35578027  0.39075596  0.96308149     0.14400
H472        H  0.48969869  0.34098751  0.14300335     0.14300
H473        H  0.48450378  0.33884320  0.96385255     0.32500
H474        H  0.36084611  0.39268269  0.14468729     0.35200
C475        C  0.44956127  0.63314882  0.01535396     0.20800
C476        C  0.47418874  0.63928660  0.05278323    -0.39000
C477        C  0.45211745  0.63348902  0.09195257     0.19800
C478        C  0.40900158  0.62190052  0.09377178     0.22500
C479        C  0.38443299  0.61539173  0.05627801    -0.39500
C480        C  0.40643601  0.62157684  0.01703378     0.21300
N481        N  0.46300745  0.63691993  0.97424976    -0.32800
C482        C  0.42827903  0.62752912  0.94936930    -0.10400
C483        C  0.39233771  0.61775643  0.97500959    -0.29200
N484        N  0.39567056  0.61842797  0.13501479    -0.45800
C485        C  0.43051568  0.62819604  0.15962868    -0.05100
C486        C  0.46634472  0.63765391  0.13379131    -0.22400
H487        H  0.50796254  0.64820849  0.05149693     0.19400
H488        H  0.35071214  0.60630621  0.05756612     0.18200
H489        H  0.36026425  0.60893079  0.96442456     0.14400
H490        H  0.49869794  0.64573573  0.14413935     0.14300
H491        H  0.49434982  0.64422993  0.96393324     0.32500
H492        H  0.36462231  0.61036540  0.14562267     0.35200
C493        C  0.66293013  0.63989355  0.01476831     0.20800
C494        C  0.63949498  0.65061493  0.05224922    -0.39000
C495        C  0.66019192  0.64180190  0.09165475     0.19800
C496        C  0.70094015  0.62352398  0.09358265     0.22500
C497        C  0.72433376  0.61276467  0.05608794    -0.39500
C498        C  0.70370210  0.62168726  0.01666494     0.21300
N499        N  0.65005515  0.64418189  0.97350245    -0.32800
C500        C  0.68281657  0.62855613  0.94859721    -0.10400
C501        C  0.71690399  0.61426060  0.97466116    -0.29200
N502        N  0.71297054  0.61724628  0.13489321    -0.45800
C503        C  0.67963742  0.63160322  0.15973422    -0.05100
C504        C  0.64615229  0.64729553  0.13363623    -0.22400
H505        H  0.60736882  0.66443301  0.05083457     0.19400
H506        H  0.75605277  0.59804546  0.05751417     0.18200
H507        H  0.74723722  0.60005859  0.96449880     0.14400
H508        H  0.61504230  0.65975257  0.14374048     0.14300
H509        H  0.62006107  0.65584133  0.96332030     0.32500
H510        H  0.74217749  0.60390505  0.14524956     0.35200
C511        C  0.66650272  0.35627111  0.09284221     0.20800
C512        C  0.64350622  0.34597949  0.05524239    -0.39000
C513        C  0.66380504  0.35677439  0.01611576     0.19800
C514        C  0.70384882  0.37642483  0.01442560     0.22500
C515        C  0.72687105  0.38681475  0.05211640    -0.39500
C516        C  0.70655779  0.37593520  0.09135699     0.21300
N517        N  0.65340255  0.35077174  0.13390788    -0.32800
C518        C  0.68519155  0.36720433  0.15919908    -0.10400
C519        C  0.71906152  0.38302554  0.13353338    -0.29200
N520        N  0.71556242  0.38413011  0.97318233    -0.45800
C521        C  0.68269430  0.36922143  0.94826276    -0.05100
C522        C  0.64983231  0.35197499  0.97424438    -0.22400
H523        H  0.61188497  0.33111089  0.05638261     0.19400
H524        H  0.75796671  0.40274422  0.05099189     0.18200
H525        H  0.74855959  0.39846342  0.14400581     0.14400
H526        H  0.61915920  0.33866249  0.96425535     0.14300
H527        H  0.62359272  0.33822064  0.14367287     0.32500
H528        H  0.74433993  0.39856124  0.96295898     0.35200
C529        C  0.43189486  0.96101147  0.70455047     0.20800
C530        C  0.44481127  0.99889306  0.72611575    -0.39000
C531        C  0.43314019  0.03816528  0.70616559     0.19800
C532        C  0.41051667  0.03957430  0.66771234     0.22500
C533        C  0.39767888  0.00176173  0.64613727    -0.39500
C534        C  0.40918251  0.96256652  0.66615703     0.21300
N535        N  0.44007164  0.91969158  0.71603052    -0.32800
C536        C  0.42251139  0.89449257  0.68461534    -0.10400
C537        C  0.40284302  0.92048759  0.65304565    -0.29200
N538        N  0.40457372  0.08073198  0.65470500    -0.45800
C539        C  0.42356825  0.10617106  0.68504257    -0.05100
C540        C  0.44162696  0.08042237  0.71777690    -0.22400
H541        H  0.46310864  0.99787430  0.75588880     0.19400
H542        H  0.38044020  0.00277626  0.61572606     0.18200
H543        H  0.38728977  0.91045469  0.62343213     0.14400
H544        H  0.45916827  0.09080725  0.74612035     0.14300
H545        H  0.45693700  0.90966377  0.74351387     0.32500
H546        H  0.38966569  0.09037943  0.62595715     0.35200
C547        C  0.66120796  0.03965179  0.68777300     0.20800
C548        C  0.63723278  0.00219274  0.69699093    -0.39000
C549        C  0.65742977  0.96278661  0.68677667     0.19800
C550        C  0.69819638  0.96081580  0.66852582     0.22500
C551        C  0.72208951  0.99832679  0.65908511    -0.39500
C552        C  0.70197094  0.03777936  0.66950774     0.21300
N553        N  0.64898011  0.08094979  0.69399937    -0.32800
C554        C  0.68212179  0.10590809  0.67950575    -0.10400
C555        C  0.71584891  0.07987460  0.66403675    -0.29200
N556        N  0.71023230  0.91942758  0.66210040    -0.45800
C557        C  0.67692725  0.89465978  0.67654571    -0.05100
C558        C  0.64332237  0.92083086  0.69202183    -0.22400
H559        H  0.60525478  0.00362890  0.71115847     0.19400
H560        H  0.75394255  0.99689857  0.64464887     0.18200
H561        H  0.74632274  0.09012348  0.65025878     0.14400
H562        H  0.61242808  0.91080015  0.70499552     0.14300
H563        H  0.61913191  0.09117871  0.70604942     0.32500
H564        H  0.73968360  0.90898264  0.64934453     0.35200
C565        C  0.67542168  0.03998744  0.40591503     0.20800
C566        C  0.66311362  0.00219700  0.38386886    -0.39000
C567        C  0.67474272  0.96290441  0.40375378     0.19800
C568        C  0.69674868  0.96141246  0.44257601     0.22500
C569        C  0.70889902  0.99914242  0.46464790    -0.39500
C570        C  0.69745970  0.03836264  0.44470472     0.21300
N571        N  0.66753910  0.08130609  0.39434593    -0.32800
C572        C  0.68465777  0.10639814  0.42610140    -0.10400
C573        C  0.70364690  0.08040459  0.45801672    -0.29200
N574        N  0.70284681  0.92023053  0.45541441    -0.45800
C575        C  0.68448993  0.89491233  0.42461823    -0.05100
C576        C  0.66677687  0.92068516  0.39172756    -0.22400
H577        H  0.64538767  0.00329537  0.35375090     0.19400
H578        H  0.72570409  0.99804154  0.49529659     0.18200
H579        H  0.71884501  0.09048404  0.48780498     0.14400
H580        H  0.64974424  0.91031071  0.36306405     0.14300
H581        H  0.65142191  0.09137556  0.36649063     0.32500
H582        H  0.71725874  0.91044376  0.48429070     0.35200
C583        C  0.42922698  0.96181091  0.40671906     0.20800
C584        C  0.43674984  0.99938607  0.38206106    -0.39000
C585        C  0.42837157  0.03885746  0.40310289     0.19800
C586        C  0.41362287  0.04063417  0.44535269     0.22500
C587        C  0.40626335  0.00315115  0.47000977    -0.39500
C588        C  0.41452133  0.96378145  0.44897058     0.21300
N589        N  0.43520619  0.92038832  0.39449026    -0.32800
C590        C  0.42404977  0.89571760  0.42922643    -0.10400
C591        C  0.41103849  0.92187206  0.46381887    -0.29200
N592        N  0.40923666  0.08189120  0.45840610    -0.45800
C593        C  0.42149995  0.10690770  0.42433675    -0.05100
C594        C  0.43357158  0.08104374  0.38914589    -0.22400
H595        H  0.44865765  0.99800299  0.34912796     0.19400
H596        H  0.39518522  0.00455227  0.50323855     0.18200
H597        H  0.40123394  0.91180619  0.49593326     0.14400
H598        H  0.44522480  0.09152567  0.35779408     0.14300
H599        H  0.44589797  0.90978955  0.36429055     0.32500
H600        H  0.40012709  0.09207608  0.48924469     0.35200
loop_ 
_geom_bond_atom_site_label_1 
_geom_bond_atom_site_label_2 
_geom_bond_distance 
_geom_bond_site_symmetry_2 
_ccdc_geom_bond_type 
O1           Ni9   1.930       .  S
O1           C11   1.284       .  A
O2           Ni9   1.933       .  S
O2           C12   1.284       .  A
O3           Ni9   1.930       .  S
O3           C13   1.284       .  A
O4           Ni9   1.931       .  S
O4           C14   1.284       .  A
O5          Ni10   1.909       .  S
O5           C14   1.280       .  A
O6          Ni10   1.911       .  S
O6           C13   1.280       .  A
O7          Ni10   1.911       .  S
O7           C12   1.281       .  A
O8          Ni10   1.911       .  S
O8           C11   1.280       .  A
Ni9         Ni10   2.386       .  S
C11         C173   1.484       .  S
C12         C307   1.485       .  S
C13         C205   1.484       .  S
C14         C275   1.483       .  S
O15         Ni23   1.911       .  S
O15          C25   1.280       .  A
O16         Ni23   1.909       .  S
O16          C26   1.280       .  A
O17         Ni23   1.918       .  S
O17          C27   1.282       .  A
O18         Ni23   1.917       .  S
O18          C28   1.283       .  A
O19         Ni24   1.925       .  S
O19          C28   1.282       .  A
O20         Ni24   1.924       .  S
O20          C27   1.283       .  A
O21         Ni24   1.923       .  S
O21          C26   1.283       .  A
O22         Ni24   1.925       .  S
O22          C25   1.283       .  A
Ni23        Ni24   2.387       .  S
C25         C225   1.480       .  S
C26         C111   1.477       .  S
C27         C207   1.483       .  S
C28         C127   1.484       .  S
O29         Ni37   1.926       .  S
O29          C39   1.283       .  A
O30         Ni37   1.926       .  S
O30          C40   1.283       .  A
O31         Ni37   1.922       .  S
O31          C41   1.282       .  A
O32         Ni37   1.921       .  S
O32          C42   1.282       .  A
O33         Ni38   1.916       .  S
O33          C42   1.282       .  A
O34         Ni38   1.917       .  S
O34          C41   1.282       .  A
O35         Ni38   1.909       .  S
O35          C40   1.280       .  A
O36         Ni38   1.910       .  S
O36          C39   1.280       .  A
Ni37        Ni38   2.387       .  S
C39         C337   1.480       .  S
C40         C109   1.479       .  S
C41         C305   1.482       .  S
C42          C79   1.482       .  S
C43         C590   1.485       .  S
C43          C44   1.408       .  A
C43          C48   1.408       .  A
C44          C45   1.406       .  A
C44          H49   1.082       .  S
C45         C250   1.478       .  S
C45          C46   1.402       .  A
C46          C47   1.400       .  A
C46          H50   1.084       .  S
C47         C332   1.477       .  S
C47          C48   1.403       .  A
C48          H51   1.083       .  S
C52         C593   1.484       .  S
C52          C53   1.407       .  A
C52          C57   1.408       .  A
C53          C54   1.403       .  A
C53          H58   1.082       .  S
C54         C168   1.478       .  S
C54          C55   1.402       .  A
C55          C56   1.403       .  A
C55          H59   1.084       .  S
C56          C72   1.479       .  S
C56          C57   1.405       .  A
C57          H60   1.083       .  S
O61         Ni69   1.923       .  S
O61          C71   1.283       .  A
O62         Ni69   1.922       .  S
O62          C72   1.282       .  A
O63         Ni69   1.925       .  S
O63          C73   1.283       .  A
O64         Ni69   1.926       .  S
O64          C74   1.283       .  A
O65         Ni70   1.911       .  S
O65          C74   1.280       .  A
O66         Ni70   1.911       .  S
O66          C73   1.280       .  A
O67         Ni70   1.912       .  S
O67          C72   1.281       .  A
O68         Ni70   1.913       .  S
O68          C71   1.281       .  A
Ni69        Ni70   2.387       .  S
C71         C182   1.481       .  S
C73         C264   1.480       .  S
C74          C86   1.481       .  S
C75         C575   1.490       .  S
C75          C76   1.408       .  A
C75          C80   1.410       .  A
C76          C77   1.402       .  A
C76          H81   1.081       .  S
C77         C252   1.477       .  S
C77          C78   1.402       .  A
C78          C79   1.402       .  A
C78          H82   1.084       .  S
C79          C80   1.407       .  A
C80          H83   1.081       .  S
C84         C572   1.491       .  S
C84          C85   1.409       .  A
C84          C89   1.409       .  A
C85          C86   1.405       .  A
C85          H90   1.081       .  S
C86          C87   1.405       .  A
C87          C88   1.403       .  A
C87          H91   1.084       .  S
C88         C106   1.483       .  S
C88          C89   1.404       .  A
C89          H92   1.081       .  S
O93        Ni101   1.911       .  S
O93         C103   1.281       .  A
O94        Ni101   1.911       .  S
O94         C104   1.281       .  A
O95        Ni101   1.915       .  S
O95         C105   1.281       .  A
O96        Ni101   1.917       .  S
O96         C106   1.281       .  A
O97        Ni102   1.923       .  S
O97         C106   1.283       .  A
O98        Ni102   1.922       .  S
O98         C105   1.282       .  A
O99        Ni102   1.923       .  S
O99         C104   1.283       .  A
O100       Ni102   1.924       .  S
O100        C103   1.282       .  A
Ni101      Ni102   2.387       .  S
C103        C357   1.479       .  S
C104        C118   1.479       .  S
C105        C273   1.481       .  S
C107        C557   1.487       .  S
C107        C108   1.409       .  A
C107        C112   1.408       .  A
C108        C109   1.405       .  A
C108        H113   1.082       .  S
C109        C110   1.403       .  A
C110        C111   1.401       .  A
C110        H114   1.084       .  S
C111        C112   1.402       .  A
C112        H115   1.082       .  S
C116        C554   1.487       .  S
C116        C117   1.408       .  A
C116        C121   1.408       .  A
C117        C118   1.405       .  A
C117        H122   1.082       .  S
C118        C119   1.403       .  A
C119        C120   1.402       .  A
C119        H123   1.084       .  S
C120        C154   1.479       .  S
C120        C121   1.404       .  A
C121        H124   1.082       .  S
C125        C536   1.494       .  S
C125        C126   1.413       .  A
C125        C130   1.409       .  A
C126        C127   1.409       .  A
C126        H131   1.081       .  S
C127        C128   1.403       .  A
C128        C129   1.401       .  A
C128        H132   1.084       .  S
C129        C334   1.479       .  S
C129        C130   1.402       .  A
C130        H133   1.081       .  S
C134        C539   1.493       .  S
C134        C135   1.410       .  A
C134        C139   1.411       .  A
C135        C136   1.404       .  A
C135        H140   1.081       .  S
C136        C156   1.482       .  S
C136        C137   1.403       .  A
C137        C138   1.403       .  A
C137        H141   1.084       .  S
C138        C170   1.483       .  S
C138        C139   1.405       .  A
C139        H142   1.081       .  S
O143       Ni151   1.923       .  S
O143        C153   1.282       .  A
O144       Ni151   1.922       .  S
O144        C154   1.282       .  A
O145       Ni151   1.925       .  S
O145        C155   1.283       .  A
O146       Ni151   1.925       .  S
O146        C156   1.283       .  A
O147       Ni152   1.914       .  S
O147        C156   1.281       .  A
O148       Ni152   1.914       .  S
O148        C155   1.281       .  A
O149       Ni152   1.913       .  S
O149        C154   1.281       .  A
O150       Ni152   1.913       .  S
O150        C153   1.281       .  A
Ni151      Ni152   2.387       .  S
C153        C255   1.481       .  S
C155        C175   1.482       .  S
O157       Ni165   1.912       .  S
O157        C167   1.281       .  A
O158       Ni165   1.912       .  S
O158        C168   1.281       .  A
O159       Ni165   1.913       .  S
O159        C169   1.281       .  A
O160       Ni165   1.914       .  S
O160        C170   1.281       .  A
O161       Ni166   1.926       .  S
O161        C170   1.283       .  A
O162       Ni166   1.925       .  S
O162        C169   1.283       .  A
O163       Ni166   1.919       .  S
O163        C168   1.282       .  A
O164       Ni166   1.917       .  S
O164        C167   1.281       .  A
Ni165      Ni166   2.387       .  S
C167        C282   1.477       .  S
C169        C366   1.481       .  S
C171        C521   1.490       .  S
C171        C172   1.410       .  A
C171        C176   1.409       .  A
C172        C173   1.407       .  A
C172        H177   1.082       .  S
C173        C174   1.406       .  A
C174        C175   1.403       .  A
C174        H178   1.084       .  S
C175        C176   1.402       .  A
C176        H179   1.082       .  S
C180        C518   1.489       .  S
C180        C181   1.409       .  A
C180        C185   1.409       .  A
C181        C182   1.404       .  A
C181        H186   1.082       .  S
C182        C183   1.403       .  A
C183        C184   1.404       .  A
C183        H187   1.084       .  S
C184        C201   1.482       .  S
C184        C185   1.405       .  A
C185        H188   1.082       .  S
O189       Ni197   1.928       .  S
O189        C199   1.283       .  A
O190       Ni197   1.924       .  S
O190        C200   1.283       .  A
O191       Ni197   1.925       .  S
O191        C201   1.283       .  A
O192       Ni197   1.926       .  S
O192        C202   1.283       .  A
O193       Ni198   1.912       .  S
O193        C202   1.281       .  A
O194       Ni198   1.913       .  S
O194        C201   1.281       .  A
O195       Ni198   1.911       .  S
O195        C200   1.281       .  A
O196       Ni198   1.913       .  S
O196        C199   1.281       .  A
Ni197      Ni198   2.387       .  S
C199        C216   1.483       .  S
C200        C355   1.480       .  S
C202        C339   1.481       .  S
C203        C500   1.491       .  S
C203        C204   1.411       .  A
C203        C208   1.408       .  A
C204        C205   1.406       .  A
C204        H209   1.082       .  S
C205        C206   1.406       .  A
C206        C207   1.403       .  A
C206        H210   1.084       .  S
C207        C208   1.405       .  A
C208        H211   1.082       .  S
C212        C503   1.490       .  S
C212        C213   1.408       .  A
C212        C217   1.410       .  A
C213        C214   1.404       .  A
C213        H218   1.082       .  S
C214        C249   1.480       .  S
C214        C215   1.403       .  A
C215        C216   1.404       .  A
C215        H219   1.084       .  S
C216        C217   1.406       .  A
C217        H220   1.082       .  S
C221        C482   1.478       .  S
C221        C222   1.406       .  A
C221        C226   1.406       .  A
C222        C223   1.402       .  A
C222        H227   1.083       .  S
C223        C302   1.479       .  S
C223        C224   1.405       .  A
C224        C225   1.404       .  A
C224        H228   1.084       .  S
C225        C226   1.403       .  A
C226        H229   1.083       .  S
C230        C485   1.478       .  S
C230        C231   1.406       .  A
C230        C235   1.405       .  A
C231        C232   1.402       .  A
C231        H236   1.083       .  S
C232        C251   1.477       .  S
C232        C233   1.403       .  A
C233        C234   1.404       .  A
C233        H237   1.084       .  S
C234        C383   1.477       .  S
C234        C235   1.403       .  A
C235        H238   1.083       .  S
O239       Ni247   1.913       .  S
O239        C249   1.281       .  A
O240       Ni247   1.910       .  S
O240        C250   1.281       .  A
O241       Ni247   1.909       .  S
O241        C251   1.280       .  A
O242       Ni247   1.908       .  S
O242        C252   1.280       .  A
O243       Ni248   1.921       .  S
O243        C252   1.283       .  A
O244       Ni248   1.923       .  S
O244        C251   1.283       .  A
O245       Ni248   1.923       .  S
O245        C250   1.282       .  A
O246       Ni248   1.922       .  S
O246        C249   1.283       .  A
Ni247      Ni248   2.388       .  S
C253        C464   1.487       .  S
C253        C254   1.409       .  A
C253        C258   1.409       .  A
C254        C255   1.404       .  A
C254        H259   1.082       .  S
C255        C256   1.403       .  A
C256        C257   1.403       .  A
C256        H260   1.084       .  S
C257        C300   1.482       .  S
C257        C258   1.405       .  A
C258        H261   1.082       .  S
C262        C467   1.487       .  S
C262        C263   1.408       .  A
C262        C267   1.410       .  A
C263        C264   1.401       .  A
C263        H268   1.082       .  S
C264        C265   1.402       .  A
C265        C266   1.405       .  A
C265        H269   1.084       .  S
C266        C381   1.484       .  S
C266        C267   1.408       .  A
C267        H270   1.082       .  S
C271        C446   1.486       .  S
C271        C272   1.408       .  A
C271        C276   1.410       .  A
C272        C273   1.403       .  A
C272        H277   1.082       .  S
C273        C274   1.402       .  A
C274        C275   1.405       .  A
C274        H278   1.084       .  S
C275        C276   1.406       .  A
C276        H279   1.082       .  S
C280        C449   1.485       .  S
C280        C281   1.406       .  A
C280        C285   1.409       .  A
C281        C282   1.402       .  A
C281        H286   1.082       .  S
C282        C283   1.400       .  A
C283        C284   1.404       .  A
C283        H287   1.084       .  S
C284        C301   1.478       .  S
C284        C285   1.405       .  A
C285        H288   1.082       .  S
O289       Ni297   1.911       .  S
O289        C299   1.282       .  A
O290       Ni297   1.913       .  S
O290        C300   1.281       .  A
O291       Ni297   1.905       .  S
O291        C301   1.280       .  A
O292       Ni297   1.906       .  S
O292        C302   1.279       .  A
O293       Ni298   1.927       .  S
O293        C302   1.284       .  A
O294       Ni298   1.926       .  S
O294        C301   1.283       .  A
O295       Ni298   1.924       .  S
O295        C300   1.283       .  A
O296       Ni298   1.924       .  S
O296        C299   1.282       .  A
Ni297      Ni298   2.387       .  S
C299        C314   1.480       .  S
C303        C428   1.488       .  S
C303        C304   1.408       .  A
C303        C308   1.411       .  A
C304        C305   1.403       .  A
C304        H309   1.083       .  S
C305        C306   1.402       .  A
C306        C307   1.406       .  A
C306        H310   1.084       .  S
C307        C308   1.408       .  A
C308        H311   1.082       .  S
C312        C431   1.487       .  S
C312        C313   1.411       .  A
C312        C317   1.405       .  A
C313        C314   1.408       .  A
C313        H318   1.083       .  S
C314        C315   1.403       .  A
C315        C316   1.400       .  A
C315        H319   1.084       .  S
C316        C331   1.475       .  S
C316        C317   1.402       .  A
C317        H320   1.082       .  S
O321       Ni329   1.915       .  S
O321        C331   1.281       .  A
O322       Ni329   1.918       .  S
O322        C332   1.281       .  A
O323       Ni329   1.925       .  S
O323        C333   1.283       .  A
O324       Ni329   1.923       .  S
O324        C334   1.283       .  A
O325       Ni330   1.911       .  S
O325        C334   1.280       .  A
O326       Ni330   1.912       .  S
O326        C333   1.281       .  A
O327       Ni330   1.913       .  S
O327        C332   1.281       .  A
O328       Ni330   1.913       .  S
O328        C331   1.281       .  A
Ni329      Ni330   2.388       .  S
C333        C346   1.479       .  S
C335        C410   1.489       .  S
C335        C336   1.408       .  A
C335        C340   1.410       .  A
C336        C337   1.403       .  A
C336        H341   1.082       .  S
C337        C338   1.402       .  A
C338        C339   1.403       .  A
C338        H342   1.084       .  S
C339        C340   1.406       .  A
C340        H343   1.082       .  S
C344        C413   1.490       .  S
C344        C345   1.409       .  A
C344        C349   1.410       .  A
C345        C346   1.404       .  A
C345        H350   1.082       .  S
C346        C347   1.403       .  A
C347        C348   1.403       .  A
C347        H351   1.084       .  S
C348        C382   1.481       .  S
C348        C349   1.406       .  A
C349        H352   1.082       .  S
C353        C392   1.487       .  S
C353        C354   1.409       .  A
C353        C358   1.409       .  A
C354        C355   1.403       .  A
C354        H359   1.082       .  S
C355        C356   1.401       .  A
C356        C357   1.402       .  A
C356        H360   1.084       .  S
C357        C358   1.406       .  A
C358        H361   1.082       .  S
C362        C395   1.487       .  S
C362        C363   1.409       .  A
C362        C367   1.408       .  A
C363        C364   1.404       .  A
C363        H368   1.082       .  S
C364        C384   1.481       .  S
C364        C365   1.403       .  A
C365        C366   1.403       .  A
C365        H369   1.084       .  S
C366        C367   1.405       .  A
C367        H370   1.082       .  S
O371       Ni379   1.928       .  S
O371        C381   1.283       .  A
O372       Ni379   1.926       .  S
O372        C382   1.283       .  A
O373       Ni379   1.926       .  S
O373        C383   1.283       .  A
O374       Ni379   1.926       .  S
O374        C384   1.283       .  A
O375       Ni380   1.909       .  S
O375        C384   1.280       .  A
O376       Ni380   1.907       .  S
O376        C383   1.280       .  A
O377       Ni380   1.913       .  S
O377        C382   1.281       .  A
O378       Ni380   1.913       .  S
O378        C381   1.282       .  A
Ni379      Ni380   2.387       .  S
C385        C390   1.383       .  A
C385        C386   1.406       .  A
C385        N391   1.346   1_455  A
C386        C387   1.405       .  A
C386        H397   1.082       .  S
C387        C396   1.380       .  A
C387        C388   1.383       .  A
C388        C389   1.402       .  A
C388        N394   1.343       .  A
C389        C390   1.401       .  A
C389        H398   1.083       .  S
C390        C393   1.375   1_455  A
N391        C392   1.360       .  A
N391        H401   1.042       .  S
C392        C393   1.398       .  A
C393        H399   1.082       .  S
N394        C395   1.358       .  A
N394        H402   1.041       .  S
C395        C396   1.400       .  A
C396        H400   1.082       .  S
C403        C408   1.383       .  A
C403        C404   1.404       .  A
C403        N409   1.343   1_455  A
C404        C405   1.403       .  A
C404        H415   1.083       .  S
C405        C414   1.377       .  A
C405        C406   1.383       .  A
C406        C407   1.405       .  A
C406        N412   1.344       .  A
C407        C408   1.404       .  A
C407        H416   1.082       .  S
C408        C411   1.380   1_455  A
N409        C410   1.359       .  A
N409        H419   1.045       .  S
C410        C411   1.400       .  A
C411        H417   1.082       .  S
N412        C413   1.359       .  A
N412        H420   1.045       .  S
C413        C414   1.400       .  A
C414        H418   1.082       .  S
C421        C426   1.383       .  A
C421        C422   1.405       .  A
C421        N427   1.345   1_455  A
C422        C423   1.404       .  A
C422        H433   1.082       .  S
C423        C432   1.380       .  A
C423        C424   1.383       .  A
C424        C425   1.404       .  A
C424        N430   1.342       .  A
C425        C426   1.403       .  A
C425        H434   1.083       .  S
C426        C429   1.377   1_455  A
N427        C428   1.358       .  A
N427        H437   1.045       .  S
C428        C429   1.400       .  A
C429        H435   1.082       .  S
N430        C431   1.359       .  A
N430        H438   1.046       .  S
C431        C432   1.398       .  A
C432        H436   1.082       .  S
C439        C444   1.383       .  A
C439        C440   1.404       .  A
C439        N445   1.344   1_455  A
C440        C441   1.403       .  A
C440        H451   1.082       .  S
C441        C450   1.379       .  A
C441        C442   1.383       .  A
C442        C443   1.402       .  A
C442        N448   1.341       .  A
C443        C444   1.401       .  A
C443        H452   1.083       .  S
C444        C447   1.375   1_455  A
N445        C446   1.358       .  A
N445        H455   1.045       .  S
C446        C447   1.399       .  A
C447        H453   1.082       .  S
N448        C449   1.358       .  A
N448        H456   1.045       .  S
C449        C450   1.399       .  A
C450        H454   1.082       .  S
C457        C462   1.383       .  A
C457        C458   1.401       .  A
C457        N463   1.341   1_554  A
C458        C459   1.400       .  A
C458        H469   1.083       .  S
C459        C468   1.373       .  A
C459        C460   1.383       .  A
C460        C461   1.406       .  A
C460        N466   1.347       .  A
C461        C462   1.406       .  A
C461        H470   1.082       .  S
C462        C465   1.380   1_554  A
N463        C464   1.357       .  A
N463        H473   1.044       .  S
C464        C465   1.401       .  A
C465        H471   1.082       .  S
N466        C467   1.359       .  A
N466        H474   1.043       .  S
C467        C468   1.398       .  A
C468        H472   1.082       .  S
C475        C480   1.384       .  A
C475        C476   1.401       .  A
C475        N481   1.340   1_554  A
C476        C477   1.400       .  A
C476        H487   1.083       .  S
C477        C486   1.373       .  A
C477        C478   1.384       .  A
C478        C479   1.403       .  A
C478        N484   1.343       .  A
C479        C480   1.402       .  A
C479        H488   1.082       .  S
C480        C483   1.377   1_554  A
N481        C482   1.356       .  A
N481        H491   1.046       .  S
C482        C483   1.397       .  A
C483        H489   1.082       .  S
N484        C485   1.357       .  A
N484        H492   1.045       .  S
C485        C486   1.396       .  A
C486        H490   1.082       .  S
C493        C498   1.382       .  A
C493        C494   1.405       .  A
C493        N499   1.343   1_554  A
C494        C495   1.404       .  A
C494        H505   1.083       .  S
C495        C504   1.378       .  A
C495        C496   1.383       .  A
C496        C497   1.405       .  A
C496        N502   1.344       .  A
C497        C498   1.404       .  A
C497        H506   1.082       .  S
C498        C501   1.379   1_554  A
N499        C500   1.360       .  A
N499        H509   1.045       .  S
C500        C501   1.400       .  A
C501        H507   1.082       .  S
N502        C503   1.359       .  A
N502        H510   1.044       .  S
C503        C504   1.401       .  A
C504        H508   1.082       .  S
C511        C516   1.382       .  A
C511        C512   1.402       .  A
C511        N517   1.342       .  A
C512        C513   1.401       .  A
C512        H523   1.083       .  S
C513        C522   1.374   1_554  A
C513        C514   1.382       .  A
C514        C515   1.405       .  A
C514        N520   1.345   1_554  A
C515        C516   1.405       .  A
C515        H524   1.082       .  S
C516        C519   1.379       .  A
N517        C518   1.358       .  A
N517        H527   1.045       .  S
C518        C519   1.401       .  A
C519        H525   1.082       .  S
N520        C521   1.359       .  A
N520        H528   1.045       .  S
C521        C522   1.400       .  A
C522        H526   1.082       .  S
C529        C534   1.382       .  A
C529        C530   1.405       .  A
C529        N535   1.346       .  A
C530        C531   1.405   1_565  A
C530        H541   1.082       .  S
C531        C540   1.378       .  A
C531        C532   1.382       .  A
C532        C533   1.403       .  A
C532        N538   1.343       .  A
C533        C534   1.403   1_545  A
C533        H542   1.083       .  S
C534        C537   1.375       .  A
N535        C536   1.360       .  A
N535        H545   1.044       .  S
C536        C537   1.401       .  A
C537        H543   1.081       .  S
N538        C539   1.359       .  A
N538        H546   1.045       .  S
C539        C540   1.402       .  A
C540        H544   1.081       .  S
C547        C552   1.383       .  A
C547        C548   1.403       .  A
C547        N553   1.342       .  A
C548        C549   1.402   1_545  A
C548        H559   1.083       .  S
C549        C558   1.375       .  A
C549        C550   1.383       .  A
C550        C551   1.404       .  A
C550        N556   1.344       .  A
C551        C552   1.403   1_565  A
C551        H560   1.082       .  S
C552        C555   1.378       .  A
N553        C554   1.358       .  A
N553        H563   1.044       .  S
C554        C555   1.400       .  A
C555        H561   1.082       .  S
N556        C557   1.359       .  A
N556        H564   1.043       .  S
C557        C558   1.399       .  A
C558        H562   1.082       .  S
C565        C570   1.382       .  A
C565        C566   1.405       .  A
C565        N571   1.345       .  A
C566        C567   1.404   1_545  A
C566        H577   1.082       .  S
C567        C576   1.377       .  A
C567        C568   1.382       .  A
C568        C569   1.402       .  A
C568        N574   1.343       .  A
C569        C570   1.402   1_565  A
C569        H578   1.082       .  S
C570        C573   1.375       .  A
N571        C572   1.360       .  A
N571        H581   1.043       .  S
C572        C573   1.400       .  A
C573        H579   1.081       .  S
N574        C575   1.359       .  A
N574        H582   1.043       .  S
C575        C576   1.402       .  A
C576        H580   1.081       .  S
C583        C588   1.383       .  A
C583        C584   1.405       .  A
C583        N589   1.345       .  A
C584        C585   1.404   1_565  A
C584        H595   1.082       .  S
C585        C594   1.379       .  A
C585        C586   1.383       .  A
C586        C587   1.402       .  A
C586        N592   1.342       .  A
C587        C588   1.401   1_545  A
C587        H596   1.083       .  S
C588        C591   1.375       .  A
N589        C590   1.359       .  A
N589        H599   1.042       .  S
C590        C591   1.398       .  A
C591        H597   1.082       .  S
N592        C593   1.358       .  A
N592        H600   1.042       .  S
C593        C594   1.399       .  A
C594        H598   1.082       .  S
