geometry optimzed in LAMMPS
_audit_creation_date              2020-12-01 
_audit_creation_method            'lammps2cif' 
_symmetry_space_group_name_H-M    'P1' 
_symmetry_Int_Tables_number       1 
_symmetry_cell_setting            triclinic 
loop_ 
_symmetry_equiv_pos_as_xyz 
  x,y,z 
_cell_length_a                    73.63156846 
_cell_length_b                    73.8881306214724 
_cell_length_c                    31.149065544514396 
_cell_angle_alpha                 89.94925702153738 
_cell_angle_beta                  89.9777187957486 
_cell_angle_gamma                 120.17799584016713 
loop_ 
_atom_site_label 
_atom_site_type_symbol 
_atom_site_fract_x 
_atom_site_fract_y 
_atom_site_fract_z 
_atom_site_charge 
In1        In  0.73150080  0.91422337  0.43564657     1.36900
C2          C  0.73321099  0.88852463  0.49152985     0.77900
O3          O  0.71992776  0.92388986  0.49190446    -0.60600
O4          O  0.69775280  0.90618534  0.44313329    -0.51500
C5          C  0.75316558  0.95311742  0.40787771     0.70600
O6          O  0.76100779  0.94565341  0.43372923    -0.46300
C7          C  0.73562868  0.89452236  0.36907294     0.75300
O8          O  0.74770651  0.90757392  0.48924200    -0.58200
O9          O  0.71923327  0.89565804  0.37572498    -0.48300
O10         O  0.71852890  0.88307211  0.46474043    -0.54600
C11         C  0.70093552  0.91447091  0.48004883     0.85400
O12         O  0.73437423  0.94071533  0.39718132    -0.56500
O13         O  0.75029587  0.90445683  0.39557304    -0.59800
In14       In  0.60197813  0.85286406  0.14658886     1.36900
C15         C  0.59917887  0.82472060  0.09082602     0.77900
O16         O  0.61425264  0.87345724  0.08873593    -0.60600
O17         O  0.63579039  0.87827935  0.13901272    -0.51500
C18         C  0.57969896  0.86991301  0.17303138     0.70600
O19         O  0.57167382  0.85362408  0.14992927    -0.46300
C20         C  0.59901998  0.83054088  0.21570534     0.75300
O21         O  0.58508263  0.82977185  0.09335707    -0.58200
O22         O  0.61567310  0.84740292  0.20621080    -0.48300
O23         O  0.61393386  0.83364557  0.11751423    -0.54600
C24         C  0.63316329  0.88286778  0.10115928     0.85400
O25         O  0.59897151  0.87749772  0.18116222    -0.56500
O26         O  0.58381186  0.82585083  0.19076159    -0.59800
In27       In  0.72916009  0.80810109  0.18603417     1.36900
C28         C  0.73357976  0.83765181  0.23958766     0.77900
O29         O  0.74766237  0.83573933  0.14354622    -0.60600
O30         O  0.71562809  0.81437008  0.12780860    -0.51500
C31         C  0.75001039  0.79030625  0.15610072     0.70600
O32         O  0.75606088  0.80196114  0.18896332    -0.46300
C33         C  0.69883241  0.77881666  0.23370357     0.75300
O34         O  0.74781407  0.83287323  0.23500587    -0.58200
O35         O  0.69546788  0.78323960  0.19629368    -0.48300
O36         O  0.71756553  0.82735878  0.21643858    -0.54600
C37         C  0.73236027  0.83131519  0.11887788     0.85400
O38         O  0.73322978  0.78758221  0.13929142    -0.56500
O39         O  0.71795696  0.78766466  0.24416386    -0.59800
In40       In  0.59861933  0.74550852  0.39540745     1.36900
C41         C  0.59732951  0.77242696  0.34210910     0.77900
O42         O  0.58159588  0.75528653  0.44093678    -0.60600
O43         O  0.61363013  0.76530901  0.45381664    -0.51500
C44         C  0.57673041  0.70614977  0.42229533     0.70600
O45         O  0.56883650  0.71349896  0.39622192    -0.46300
C46         C  0.62868056  0.74516590  0.34872616     0.75300
O47         O  0.58210445  0.75371556  0.34498369    -0.58200
O48         O  0.63153950  0.75211429  0.38680345    -0.48300
O49         O  0.61246318  0.77687717  0.36702286    -0.54600
C50         C  0.59743002  0.76611968  0.46434025     0.85400
O51         O  0.59533784  0.71897894  0.43351526    -0.56500
O52         O  0.60984922  0.73667673  0.33607231    -0.59800
In53       In  0.74518759  0.13886476  0.09928892     1.36900
C54         C  0.77041392  0.16889504  0.15251568     0.77900
O55         O  0.73727632  0.11821931  0.15770482    -0.60600
O56         O  0.75428416  0.11431687  0.10703188    -0.51500
C57         C  0.70636908  0.12227677  0.06901116     0.70600
O58         O  0.71253794  0.13395507  0.10183329    -0.46300
C59         C  0.76467731  0.16200367  0.03171297     0.75300
O60         O  0.75092447  0.16271179  0.15024529    -0.58200
O61         O  0.76427221  0.14494584  0.03941973    -0.48300
O62         O  0.77659266  0.15990167  0.12691078    -0.54600
C63         C  0.74724498  0.10946636  0.14495677     0.85400
O64         O  0.71984087  0.11851487  0.05290393    -0.56500
O65         O  0.75445952  0.16651170  0.05791757    -0.59800
In66       In  0.81517736  0.07345207  0.29832473     1.36900
C67         C  0.84312587  0.09832040  0.24165621     0.77900
O68         O  0.79398656  0.06471739  0.24074605    -0.60600
O69         O  0.79031031  0.08223840  0.29068905    -0.51500
C70         C  0.79793075  0.03515209  0.33045029     0.70600
O71         O  0.81316832  0.04183855  0.30432863    -0.46300
C72         C  0.83869710  0.09405916  0.36500882     0.75300
O73         O  0.83738462  0.07896560  0.24331311    -0.58200
O74         O  0.82089820  0.09235684  0.35874303    -0.48300
O75         O  0.83482196  0.10431237  0.26945222    -0.54600
C76         C  0.78512857  0.07465873  0.25324127     0.85400
O77         O  0.79166935  0.04785246  0.33840103    -0.56500
O78         O  0.84377649  0.08459030  0.33818016    -0.59800
In79       In  0.91949928  0.18018496  0.04728201     1.36900
C80         C  0.89676588  0.15050193  0.99143993     0.77900
O81         O  0.90976332  0.15359564  0.09175368    -0.60600
O82         O  0.89903270  0.17486590  0.10561276    -0.51500
C83         C  0.95826459  0.19845662  0.07883172     0.70600
O84         O  0.95096009  0.18192806  0.05664641    -0.46300
C85         C  0.91555110  0.20782892  0.99940621     0.75300
O86         O  0.91666471  0.15921329  0.99158122    -0.58200
O87         O  0.90884005  0.20355160  0.03765086    -0.48300
O88         O  0.88920706  0.15665465  0.02045474    -0.54600
C89         C  0.89866993  0.15804536  0.11547066     0.85400
O90         O  0.94601799  0.20561707  0.08310943    -0.56500
O91         O  0.92605762  0.19949815  0.98744102    -0.59800
In92       In  0.84815961  0.24691386  0.35016296     1.36900
C93         C  0.81925896  0.22173840  0.40508931     0.77900
O94         O  0.81974372  0.23664417  0.30832932    -0.60600
O95         O  0.84245203  0.22844401  0.28989818    -0.51500
C96         C  0.86572503  0.28626675  0.32282288     0.70600
O97         O  0.85103854  0.27890634  0.35026488    -0.46300
C98         C  0.87824304  0.24390334  0.39209509     0.75300
O99         O  0.82543163  0.24117837  0.40439860    -0.58200
O100        O  0.87238361  0.23695129  0.35446858    -0.48300
O101        O  0.82782792  0.21590276  0.37767843    -0.54600
C102        C  0.82484722  0.22691665  0.28221652     0.85400
O103        O  0.87141436  0.27357424  0.31078683    -0.56500
O104        O  0.86996012  0.25403437  0.40661848    -0.59800
In105      In  0.41346426  0.93379498  0.02068394     1.36900
C106        C  0.43818102  0.93129939  0.07823324     0.77900
O107        O  0.42310017  0.91363684  0.48442080    -0.60600
O108        O  0.43277783  0.94438708  0.46122357    -0.51500
C109        C  0.37449370  0.91429414  0.49039452     0.70600
O110        O  0.38028223  0.90693139  0.01998310    -0.46300
C111        C  0.41511341  0.96503451  0.06452755     0.75300
O112        O  0.41928347  0.91661064  0.07325458    -0.58200
O113        O  0.42297548  0.96734561  0.02725938    -0.48300
O114        O  0.44408019  0.94681849  0.05348271    -0.54600
C115        C  0.43335710  0.92762323  0.45676910     0.85400
O116        O  0.38865312  0.93201448  0.47734532    -0.56500
O117        O  0.40481559  0.94630182  0.07752576    -0.59800
In118      In  0.47928179  0.06681112  0.22273951     1.36900
C119        C  0.51057625  0.07333974  0.17087996     0.77900
O120        O  0.50317162  0.08276078  0.27358101    -0.60600
O121        O  0.48302088  0.04989974  0.27968949    -0.51500
C122        C  0.45949278  0.08656827  0.24831488     0.70600
O123        O  0.47694545  0.09587619  0.22882945    -0.46300
C124        C  0.45141089  0.03680942  0.17317741     0.75300
O125        O  0.50389739  0.08617498  0.17227497    -0.58200
O126        O  0.45442823  0.03382261  0.21192703    -0.48300
O127        O  0.50159861  0.05819986  0.19663912    -0.54600
C128        C  0.49874836  0.06629963  0.29407910     0.85400
O129        O  0.45209535  0.06719012  0.25354985    -0.56500
O130        O  0.46174963  0.05562033  0.16080579    -0.59800
In131      In  0.51692416  0.93024611  0.27122551     1.36900
C132        C  0.48647894  0.92449116  0.32467334     0.77900
O133        O  0.53732549  0.94338127  0.33004962    -0.60600
O134        O  0.54140994  0.96384236  0.27828807    -0.51500
C135        C  0.53692285  0.91112489  0.24254193     0.70600
O136        O  0.52127645  0.90217283  0.26763555    -0.46300
C137        C  0.49476664  0.92821033  0.20261980     0.75300
O138        O  0.49383395  0.91218715  0.32404935    -0.58200
O139        O  0.51101027  0.94484496  0.21457625    -0.48300
O140        O  0.49463346  0.93922542  0.29782427    -0.54600
C141        C  0.54652209  0.96196610  0.31612359     0.85400
O142        O  0.54218356  0.92970312  0.23294536    -0.56500
O143        O  0.49076744  0.91212746  0.22416907    -0.59800
In144      In  0.58280551  0.06373833  0.47382104     1.36900
C145        C  0.55704358  0.06741293  0.42034030     0.77900
O146        O  0.59147901  0.05233622  0.41541684    -0.60600
O147        O  0.57401442  0.03012836  0.46436565    -0.51500
C148        C  0.62165350  0.08382931  0.00397268     0.70600
O149        O  0.61610058  0.09030276  0.47059562    -0.46300
C150        C  0.56425398  0.06800753  0.04265544     0.75300
O151        O  0.57616481  0.08174166  0.42380785    -0.58200
O152        O  0.56382201  0.05092918  0.03489379    -0.48300
O153        O  0.55154198  0.05189736  0.44491987    -0.54600
C154        C  0.58156144  0.03335212  0.42668108     0.85400
O155        O  0.60753527  0.06698270  0.02045023    -0.56500
O156        O  0.57454986  0.08251874  0.01593392    -0.59800
In157      In  0.80740825  0.72527278  0.05658324     1.36900
C158        C  0.83461851  0.73139745  0.99469015     0.77900
O159        O  0.83737835  0.74451367  0.09216671    -0.60600
O160        O  0.81589746  0.71401066  0.11568972    -0.51500
C161        C  0.78999195  0.74624913  0.08869855     0.70600
O162        O  0.80062768  0.75167941  0.05435832    -0.46300
C163        C  0.77702233  0.69055899  0.02044380     0.75300
O164        O  0.82808193  0.74417832  0.00009072    -0.58200
O165        O  0.78572750  0.69033638  0.05520969    -0.48300
O166        O  0.82734120  0.71641530  0.02100391    -0.54600
C167        C  0.83349839  0.73056466  0.11991628     0.85400
O168        O  0.78794203  0.72985172  0.10572163    -0.56500
O169        O  0.78233248  0.70869078  0.00707263    -0.59800
In170      In  0.74752221  0.59415839  0.35349881     1.36900
C171        C  0.77548424  0.59265989  0.40459126     0.77900
O172        O  0.75660469  0.57685908  0.30802456    -0.60600
O173        O  0.76687432  0.60895290  0.29510566    -0.51500
C174        C  0.70857019  0.57329228  0.32373381     0.70600
O175        O  0.71549582  0.56469134  0.34909365    -0.46300
C176        C  0.74550182  0.62238338  0.40267582     0.75300
O177        O  0.75658389  0.57760741  0.40293198    -0.58200
O178        O  0.75298814  0.62673799  0.36495068    -0.48300
O179        O  0.77951728  0.60786349  0.38012112    -0.54600
C180        C  0.76727551  0.59260020  0.28431317     0.85400
O181        O  0.72158137  0.59212035  0.31459637    -0.56500
O182        O  0.73776285  0.60337798  0.41330960    -0.59800
In183      In  0.91814882  0.73468914  0.30588129     1.36900
C184        C  0.89408907  0.73775947  0.24653561     0.77900
O185        O  0.92857173  0.72179661  0.25193322    -0.60600
O186        O  0.91163927  0.70175485  0.30379458    -0.51500
C187        C  0.95595794  0.75831841  0.33997492     0.70600
O188        O  0.95084671  0.76256312  0.30416900    -0.46300
C189        C  0.89368483  0.73401875  0.36852583     0.75300
O190        O  0.91282269  0.75253206  0.25219280    -0.58200
O191        O  0.89599531  0.71853742  0.36016980    -0.48300
O192        O  0.88841223  0.72229928  0.27111242    -0.54600
C193        C  0.91921843  0.70339638  0.26663324     0.85400
O194        O  0.94165719  0.74222461  0.35821052    -0.56500
O195        O  0.90472073  0.75009043  0.34577428    -0.59800
In196      In  0.85624127  0.60213845  0.10370995     1.36900
C197        C  0.82509936  0.59713961  0.15374478     0.77900
O198        O  0.87243034  0.61321375  0.16690748    -0.60600
O199        O  0.88117814  0.63543512  0.11607815    -0.51500
C200        C  0.87484550  0.58048368  0.08143881     0.70600
O201        O  0.85716231  0.57196154  0.09999909    -0.46300
C202        C  0.83632202  0.59975915  0.03114585     0.75300
O203        O  0.83179429  0.58429735  0.15358436    -0.58200
O204        O  0.85253698  0.61663579  0.04248480    -0.48300
O205        O  0.83397624  0.61195203  0.12714682    -0.54600
C206        C  0.88298331  0.63215380  0.15544333     0.85400
O207        O  0.88314276  0.60000397  0.07609677    -0.56500
O208        O  0.83153245  0.58444637  0.05575862    -0.59800
In209      In  0.41438316  0.47764313  0.26219592     1.36900
C210        C  0.43950709  0.50930466  0.31284451     0.77900
O211        O  0.40766266  0.45885067  0.32196817    -0.60600
O212        O  0.42492355  0.45422094  0.27263223    -0.51500
C213        C  0.37460538  0.45661966  0.23682870     0.70600
O214        O  0.38176645  0.47268663  0.26055175    -0.46300
C215        C  0.43261189  0.49884035  0.19135191     0.75300
O216        O  0.41988646  0.50259214  0.31172052    -0.58200
O217        O  0.43360649  0.48291303  0.20291182    -0.48300
O218        O  0.44549953  0.49977141  0.28829269    -0.54600
C219        C  0.41763099  0.44987159  0.31044495     0.85400
O220        O  0.38774970  0.45109030  0.22719102    -0.56500
O221        O  0.42117944  0.50293775  0.21483134    -0.59800
In222      In  0.47685526  0.41344519  0.48480526     1.36900
C223        C  0.50815494  0.43906747  0.43261200     0.77900
O224        O  0.45811248  0.40572662  0.42515418    -0.60600
O225        O  0.45268375  0.42301475  0.47323660    -0.51500
C226        C  0.45561469  0.37351160  0.01013658     0.70600
O227        O  0.47127322  0.38058747  0.48483159    -0.46300
C228        C  0.49814590  0.43131727  0.05540844     0.75300
O229        O  0.50284303  0.41990161  0.43645287    -0.58200
O230        O  0.48216054  0.43248932  0.04471154    -0.48300
O231        O  0.49776069  0.44456534  0.45596323    -0.54600
C232        C  0.44880039  0.41551252  0.43556576     0.85400
O233        O  0.45081214  0.38694281  0.02172394    -0.56500
O234        O  0.50210457  0.42003458  0.03122283    -0.59800
In235      In  0.51913643  0.58155923  0.01011271     1.36900
C236        C  0.48863827  0.55410443  0.06016601     0.77900
O237        O  0.49344671  0.57461700  0.46485302    -0.60600
O238        O  0.51563184  0.56558845  0.44650840    -0.51500
C239        C  0.53804698  0.62177183  0.48973578     0.70600
O240        O  0.52079849  0.61275025  0.01059778    -0.46300
C241        C  0.54624678  0.57862109  0.06040637     0.75300
O242        O  0.49416776  0.57339703  0.05973324    -0.58200
O243        O  0.54311255  0.57194036  0.02202479    -0.48300
O244        O  0.49836302  0.54904531  0.03389446    -0.54600
C245        C  0.49871264  0.56541143  0.43777864     0.85400
O246        O  0.54586880  0.61040722  0.48111535    -0.56500
O247        O  0.53707837  0.58855417  0.07072943    -0.59800
In248      In  0.58395658  0.51709084  0.23170444     1.36900
C249        C  0.55801614  0.48582712  0.18160178     0.77900
O250        O  0.57576073  0.49198163  0.28055958    -0.60600
O251        O  0.56523394  0.51351120  0.29200873    -0.51500
C252        C  0.62423179  0.53587717  0.25445811     0.70600
O253        O  0.61536965  0.51885125  0.23374869    -0.46300
C254        C  0.58035234  0.54414919  0.18080924     0.75300
O255        O  0.57758419  0.49228501  0.18158980    -0.58200
O256        O  0.57436993  0.54116269  0.21964709    -0.48300
O257        O  0.55237569  0.49498607  0.20793817    -0.54600
C258        C  0.56502734  0.49701301  0.30401382     0.85400
O259        O  0.61261751  0.54351836  0.26218051    -0.56500
O260        O  0.58980842  0.53462835  0.16957574    -0.59800
In261      In  0.14559557  0.74570808  0.14633291     1.36900
C262        C  0.17515056  0.77322076  0.09489936     0.77900
O263        O  0.12691876  0.73877647  0.08530089    -0.60600
O264        O  0.12049218  0.75388077  0.13631707    -0.51500
C265        C  0.12921937  0.70595404  0.17163026     0.70600
O266        O  0.14583610  0.71494551  0.14928460    -0.46300
C267        C  0.16590639  0.76393875  0.21785832     0.75300
O268        O  0.17025493  0.75408936  0.09551287    -0.58200
O269        O  0.14857646  0.76277823  0.20873718    -0.48300
O270        O  0.16551501  0.77807802  0.12177501    -0.54600
C271        C  0.11729380  0.74803373  0.09740897     0.85400
O272        O  0.12088906  0.71701626  0.17856968    -0.56500
O273        O  0.17172340  0.75491011  0.19151611    -0.59800
In274      In  0.07926933  0.81205999  0.43397925     1.36900
C275        C  0.10580741  0.84222943  0.48402650     0.77900
O276        O  0.07202354  0.79247206  0.49331879    -0.60600
O277        O  0.08874470  0.78763451  0.44329839    -0.51500
C278        C  0.04020265  0.79601915  0.40636233     0.70600
O279        O  0.04683165  0.80747347  0.43944830    -0.46300
C280        C  0.09749264  0.83529162  0.36608541     0.75300
O281        O  0.08636516  0.83638861  0.48330974    -0.58200
O282        O  0.09632150  0.81773211  0.37221528    -0.48300
O283        O  0.11140047  0.83271396  0.45841918    -0.54600
C284        C  0.08219336  0.78374558  0.48173647     0.85400
O285        O  0.05322650  0.79189201  0.38917581    -0.56500
O286        O  0.08857194  0.84043338  0.39420599    -0.59800
In287      In  0.25049263  0.85002704  0.39537192     1.36900
C288        C  0.22457470  0.81915349  0.34503503     0.77900
O289        O  0.24316947  0.82536528  0.44442682    -0.60600
O290        O  0.23105366  0.84582667  0.45407792    -0.51500
C291        C  0.28987723  0.86986063  0.42232333     0.70600
O292        O  0.28210767  0.85259926  0.40248060    -0.46300
C293        C  0.24790003  0.87682321  0.34286416     0.75300
O294        O  0.24414872  0.82552489  0.34541987    -0.58200
O295        O  0.24187145  0.87438875  0.38168244    -0.48300
O296        O  0.21876441  0.82818346  0.37141442    -0.54600
C297        C  0.23191853  0.83001161  0.46716066     0.85400
O298        O  0.27776527  0.87718002  0.42675968    -0.56500
O299        O  0.25696880  0.86682210  0.33220805    -0.59800
In300      In  0.18381493  0.91489082  0.18300730     1.36900
C301        C  0.15329341  0.88947334  0.23479068     0.77900
O302        O  0.15667275  0.90755196  0.14063371    -0.60600
O303        O  0.17795592  0.89735056  0.12184817    -0.51500
C304        C  0.20423917  0.95449970  0.15832983     0.70600
O305        O  0.18863872  0.94732027  0.18356788    -0.46300
C306        C  0.21201942  0.91142499  0.22884779     0.75300
O307        O  0.15991604  0.90900935  0.23359968    -0.58200
O308        O  0.20693863  0.90406976  0.19120377    -0.48300
O309        O  0.16242426  0.88332999  0.20940346    -0.54600
C310        C  0.16107473  0.89740114  0.11421287     0.85400
O311        O  0.20951331  0.94144015  0.14664724    -0.56500
O312        O  0.20369645  0.92185530  0.24135088    -0.59800
In313      In  0.14356314  0.39499979  0.39778821     1.36900
C314        C  0.17286052  0.39839344  0.34345349     0.77900
O315        O  0.17194467  0.41255613  0.43808106    -0.60600
O316        O  0.14924664  0.38146319  0.45713867    -0.51500
C317        C  0.12680735  0.41711577  0.42751104     0.70600
O318        O  0.13733964  0.42192877  0.39299235    -0.46300
C319        C  0.11300053  0.36379202  0.35390546     0.75300
O320        O  0.16857048  0.41294463  0.34793152    -0.58200
O321        O  0.11811673  0.36153413  0.39150171    -0.48300
O322        O  0.16221924  0.38262552  0.36696919    -0.54600
C323        C  0.16695452  0.39762847  0.46408167     0.85400
O324        O  0.12494825  0.40116707  0.44632287    -0.56500
O325        O  0.12206153  0.38249940  0.34089609    -0.59800
In326      In  0.07842796  0.26372609  0.19189794     1.36900
C327        C  0.10332500  0.25808437  0.24483913     0.77900
O328        O  0.08628068  0.24606218  0.14550843    -0.60600
O329        O  0.09801382  0.27837018  0.13251987    -0.51500
C330        C  0.03962718  0.24357737  0.16116737     0.70600
O331        O  0.04655600  0.23493235  0.18626688    -0.46300
C332        C  0.07950307  0.29324389  0.24148633     0.75300
O333        O  0.08372186  0.24510597  0.24310078    -0.58200
O334        O  0.08719499  0.29690527  0.20392477    -0.48300
O335        O  0.10965840  0.27329375  0.21916797    -0.54600
C336        C  0.09712066  0.26146600  0.12114618     0.85400
O337        O  0.05228105  0.26270743  0.15391614    -0.56500
O338        O  0.06980256  0.27414744  0.25206954    -0.59800
In339      In  0.24944758  0.39453966  0.14718645     1.36900
C340        C  0.22584051  0.39909299  0.08884878     0.77900
O341        O  0.25698166  0.37942056  0.09394397    -0.60600
O342        O  0.23772462  0.35968691  0.14433850    -0.51500
C343        C  0.28926846  0.41566287  0.17275925     0.70600
O344        O  0.28134771  0.42402067  0.14967104    -0.46300
C345        C  0.22970104  0.39882783  0.21421890     0.75300
O346        O  0.24558692  0.41134132  0.08967942    -0.58200
O347        O  0.23063103  0.38241686  0.20746615    -0.48300
O348        O  0.21896648  0.38509750  0.11735367    -0.54600
C349        C  0.24590379  0.36094263  0.10789115     0.85400
O350        O  0.27685807  0.39673703  0.18208447    -0.56500
O351        O  0.24005341  0.41346904  0.18797023    -0.59800
In352      In  0.18224347  0.26168112  0.44292489     1.36900
C353        C  0.15152137  0.25710682  0.49375190     0.77900
O354        O  0.20079064  0.27311615  0.50314475    -0.60600
O355        O  0.20749415  0.29516441  0.45280796    -0.51500
C356        C  0.20202446  0.24174156  0.42045025     0.70600
O357        O  0.18588155  0.23336955  0.44423607    -0.46300
C358        C  0.16011180  0.25844670  0.37355207     0.75300
O359        O  0.15673918  0.24314547  0.49184441    -0.58200
O360        O  0.17707938  0.27513781  0.38222366    -0.48300
O361        O  0.16208777  0.27277815  0.46985882    -0.54600
C362        C  0.21108346  0.29198987  0.49107509     0.85400
O363        O  0.20790036  0.26021134  0.40862624    -0.56500
O364        O  0.15581950  0.24323139  0.39811996    -0.59800
In365      In  0.26353529  0.18181084  0.31939673     1.36900
C366        C  0.26131702  0.15486854  0.26166350     0.77900
O367        O  0.27548515  0.20392877  0.26464509    -0.60600
O368        O  0.29767030  0.20664134  0.31186637    -0.51500
C369        C  0.24243744  0.19880918  0.35084911     0.70600
O370        O  0.23395153  0.18354351  0.32495686    -0.46300
C371        C  0.26013559  0.15821127  0.38573375     0.75300
O372        O  0.24759775  0.16048406  0.26308917    -0.58200
O373        O  0.27645118  0.17567433  0.37800970    -0.48300
O374        O  0.27538744  0.16284902  0.29004129    -0.54600
C375        C  0.29457869  0.21226186  0.27543689     0.85400
O376        O  0.26148480  0.20525816  0.35929508    -0.56500
O377        O  0.24510235  0.15323043  0.36002160    -0.59800
In378      In  0.39241444  0.24875320  0.10372992     1.36900
C379        C  0.39754461  0.22439444  0.15958146     0.77900
O380        O  0.38020304  0.25658738  0.16198192    -0.60600
O381        O  0.35828973  0.23821695  0.11342851    -0.51500
C382        C  0.41368385  0.28827992  0.07560728     0.70600
O383        O  0.42243457  0.28019710  0.09697522    -0.46300
C384        C  0.39459907  0.22914877  0.03494795     0.75300
O385        O  0.41073998  0.24384664  0.15671031    -0.58200
O386        O  0.37796916  0.22946322  0.04382201    -0.48300
O387        O  0.38258662  0.21784130  0.13322347    -0.54600
C388        C  0.36114135  0.24582884  0.15091770     0.85400
O389        O  0.39421117  0.27636432  0.06999917    -0.56500
O390        O  0.40984554  0.23983640  0.05968266    -0.59800
In391      In  0.26780509  0.07917149  0.06908384     1.36900
C392        C  0.26338510  0.10401071  0.51520728     0.77900
O393        O  0.25050280  0.08911876  0.11169841    -0.60600
O394        O  0.28175963  0.09788105  0.12980425    -0.51500
C395        C  0.24567134  0.03961673  0.09500105     0.70600
O396        O  0.23759028  0.04780816  0.07189720    -0.46300
C397        C  0.29868167  0.08165584  0.02041937     0.75300
O398        O  0.24989687  0.08480559  0.01765786    -0.58200
O399        O  0.30159512  0.08827694  0.05878611    -0.48300
O400        O  0.27867543  0.11032491  0.04084554    -0.54600
C401        C  0.26554819  0.09921057  0.13725393     0.85400
O402        O  0.26481888  0.05160574  0.10384212    -0.56500
O403        O  0.27964842  0.07196447  0.00896809    -0.59800
In404      In  0.39885765  0.14679003  0.35565890     1.36900
C405        C  0.40096194  0.17484113  0.41046106     0.77900
O406        O  0.41696133  0.17440417  0.31204966    -0.60600
O407        O  0.38515736  0.15220759  0.29685359    -0.51500
C408        C  0.41942602  0.12878881  0.32530229     0.70600
O409        O  0.42803379  0.14414837  0.35100830    -0.46300
C410        C  0.36844426  0.11728862  0.40298972     0.75300
O411        O  0.41511180  0.16977614  0.40941961    -0.58200
O412        O  0.36516157  0.12190886  0.36567843    -0.48300
O413        O  0.38664125  0.16591208  0.38284231    -0.54600
C414        C  0.40150173  0.16938645  0.28745653     0.85400
O415        O  0.40043308  0.12264316  0.31679789    -0.56500
O416        O  0.38758877  0.12624304  0.41362052    -0.59800
In417      In  0.92940803  0.41082241  0.23378194     1.36900
C418        C  0.92943745  0.43859926  0.17938291     0.77900
O419        O  0.91239634  0.41902726  0.28298747    -0.60600
O420        O  0.94465077  0.42887375  0.29306475    -0.51500
C421        C  0.90798395  0.37077597  0.25560940     0.70600
O422        O  0.89938989  0.37952865  0.23581933    -0.46300
C423        C  0.95835264  0.41011882  0.18580664     0.75300
O424        O  0.91353594  0.42038118  0.18382705    -0.58200
O425        O  0.96204257  0.41699288  0.22399997    -0.48300
O426        O  0.94451720  0.44256482  0.20415344    -0.54600
C427        C  0.92855118  0.42929502  0.30588087     0.85400
O428        O  0.92725341  0.38249831  0.26355256    -0.56500
O429        O  0.93936354  0.40193190  0.17419751    -0.59800
In430      In  0.05900226  0.47261705  0.02344049     1.36900
C431        C  0.06633436  0.50245403  0.08066309     0.77900
O432        O  0.07818466  0.50045711  0.48308634    -0.60600
O433        O  0.04676603  0.47974904  0.46277507    -0.51500
C434        C  0.07999399  0.45489875  0.49262536     0.70600
O435        O  0.08563688  0.46612842  0.02661628    -0.46300
C436        C  0.02577636  0.44277758  0.06471974     0.75300
O437        O  0.07890287  0.49556081  0.07627828    -0.58200
O438        O  0.02404751  0.45001358  0.02911922    -0.48300
O439        O  0.05063281  0.49397421  0.05605094    -0.54600
C440        C  0.06392243  0.49658217  0.45607143     0.85400
O441        O  0.06320811  0.45210778  0.47575520    -0.56500
O442        O  0.04448610  0.44941282  0.07637309    -0.59800
In443      In  0.93731427  0.51987038  0.48063025     1.36900
C444        C  0.93374457  0.49019547  0.42822797     0.77900
O445        O  0.94878359  0.53931400  0.42037943    -0.60600
O446        O  0.97050524  0.54539953  0.47113454    -0.51500
C447        C  0.91798089  0.53947901  0.01112633     0.70600
O448        O  0.90968049  0.52518180  0.48252525    -0.46300
C449        C  0.93358944  0.49681916  0.04913265     0.75300
O450        O  0.91894612  0.49419991  0.43280545    -0.58200
O451        O  0.95082784  0.51283503  0.03849726    -0.48300
O452        O  0.94989831  0.50131261  0.45052418    -0.54600
C453        C  0.96768016  0.54938646  0.43289827     0.85400
O454        O  0.93621835  0.54390697  0.02247309    -0.56500
O455        O  0.91818379  0.49335188  0.02569304    -0.59800
In456      In  0.06924651  0.58338527  0.27530112     1.36900
C457        C  0.07275718  0.55784132  0.32982284     0.77900
O458        O  0.05820372  0.59195911  0.33531696    -0.60600
O459        O  0.03624985  0.57615250  0.28511652    -0.51500
C460        C  0.08901771  0.62239308  0.24546509     0.70600
O461        O  0.09815758  0.61557091  0.26955351    -0.46300
C462        C  0.06990218  0.56215763  0.20666710     0.75300
O463        O  0.08721984  0.57691194  0.32686229    -0.58200
O464        O  0.05370605  0.56285479  0.21769182    -0.48300
O465        O  0.05745818  0.55261197  0.30479930    -0.54600
C466        C  0.03932353  0.58343460  0.32292096     0.85400
O467        O  0.07008168  0.60927782  0.23740598    -0.56500
O468        O  0.08590616  0.57327867  0.22947112    -0.59800
C469        C  0.00579171  0.57427058  0.42217843    -0.12000
C470        C  0.98556635  0.56323186  0.40431354     0.05100
C471        C  0.98356921  0.56333419  0.35913830    -0.07200
C472        C  0.00153851  0.57161205  0.33316887    -0.08000
C473        C  0.02169196  0.58036702  0.35112739    -0.02500
C474        C  0.02377519  0.58308225  0.39614915     0.04300
N475        N  0.04388524  0.59386470  0.41640285     0.66800
H476        H  0.00775994  0.57519457  0.45663931     0.15700
H477        H  0.99956593  0.57016723  0.29872131     0.15400
N478        N  0.96353172  0.55423116  0.33865359     0.74500
O479        O  0.05118652  0.61272123  0.42727133    -0.39000
O480        O  0.05121408  0.58340805  0.43355056    -0.38900
O481        O  0.95685833  0.56610788  0.32629720    -0.39600
O482        O  0.95592042  0.53627410  0.32216570    -0.39700
C483        C  0.08445242  0.53187909  0.42345167    -0.12000
C484        C  0.06719059  0.51138501  0.42089787     0.05100
C485        C  0.05313664  0.50609956  0.38627224    -0.07200
C486        C  0.05604375  0.52139626  0.35630591    -0.08000
C487        C  0.07256987  0.54224373  0.36016331    -0.02500
C488        C  0.08717019  0.54732545  0.39379895     0.04300
N489        N  0.10418226  0.56816822  0.39999984     0.66800
H490        H  0.09546639  0.53626835  0.44971243     0.15700
H491        H  0.04481213  0.51691228  0.33042678     0.15400
N492        N  0.03564055  0.48541937  0.38106850     0.74500
O493        O  0.10149361  0.58031888  0.42417936    -0.39000
O494        O  0.12265254  0.57219219  0.39204472    -0.38900
O495        O  0.01767528  0.48157533  0.39307489    -0.39600
O496        O  0.03709473  0.47312042  0.35506903    -0.39700
C497        C  0.08598769  0.54329493  0.17090820    -0.12000
C498        C  0.07001043  0.54846451  0.17176179     0.05100
C499        C  0.05387698  0.53935062  0.14086653    -0.07200
C500        C  0.05343883  0.52478136  0.11169339    -0.08000
C501        C  0.06889433  0.51892890  0.11169523    -0.02500
C502        C  0.08566643  0.52878791  0.14125774     0.04300
N503        N  0.10245958  0.52437760  0.14188639     0.66800
H504        H  0.09869731  0.55024066  0.19415190     0.15700
H505        H  0.04061859  0.51791871  0.08870022     0.15400
N506        N  0.03804782  0.54504535  0.13765968     0.74500
O507        O  0.11954583  0.53692489  0.12359814    -0.39000
O508        O  0.10229415  0.51184762  0.16964733    -0.38900
O509        O  0.04048605  0.55892485  0.11089166    -0.39600
O510        O  0.01986720  0.53262932  0.15180338    -0.39700
C511        C  0.94898478  0.46015011  0.35166729    -0.12000
C512        C  0.92942823  0.44268521  0.34202095     0.05100
C513        C  0.91132287  0.44024762  0.36316585    -0.07200
C514        C  0.91303730  0.45580991  0.39143960    -0.08000
C515        C  0.93251524  0.47378790  0.39924429    -0.02500
C516        C  0.95069151  0.47570554  0.37951609     0.04300
N517        N  0.97077522  0.49417793  0.38421232     0.66800
H518        H  0.96305211  0.46248402  0.33544396     0.15700
H519        H  0.89902793  0.45384711  0.40727687     0.15400
N520        N  0.89117036  0.42208433  0.35678712     0.74500
O521        O  0.98397834  0.49398343  0.40972849    -0.39000
O522        O  0.97706613  0.50808429  0.35544552    -0.38900
O523        O  0.88449808  0.40741773  0.38392257    -0.39600
O524        O  0.87826426  0.42315591  0.33178908    -0.39700
C525        C  0.91203195  0.45235971  0.13143990    -0.12000
C526        C  0.93063867  0.45407844  0.14736482     0.05100
C527        C  0.95010436  0.47045417  0.13186433    -0.07200
C528        C  0.95054960  0.48454396  0.10122712    -0.08000
C529        C  0.93196039  0.48265810  0.08472264    -0.02500
C530        C  0.91249247  0.46639339  0.10045785     0.04300
N531        N  0.89296955  0.46377454  0.08556513     0.66800
H532        H  0.89701546  0.44004641  0.14303100     0.15700
H533        H  0.96561492  0.49658548  0.08920695     0.15400
N534        N  0.96963415  0.47235791  0.14465935     0.74500
O535        O  0.88250791  0.44969326  0.05832382    -0.39000
O536        O  0.88390750  0.47134713  0.10729670    -0.38900
O537        O  0.97777692  0.46435151  0.12136159    -0.39600
O538        O  0.98103662  0.48636299  0.17128128    -0.39700
C539        C  0.01206577  0.42876405  0.13711754    -0.12000
C540        C  0.00776425  0.42958578  0.09338601     0.05100
C541        C  0.98660370  0.42045693  0.08023406    -0.07200
C542        C  0.97053594  0.41211967  0.11097953    -0.08000
C543        C  0.97511064  0.41350677  0.15507338    -0.02500
C544        C  0.99609047  0.42126612  0.16796671     0.04300
N545        N  0.00177214  0.42318166  0.21228896     0.66800
H546        H  0.02810613  0.43555226  0.14806567     0.15700
H547        H  0.95455837  0.40616871  0.10031187     0.15400
N548        N  0.98106233  0.42069993  0.03637285     0.74500
O549        O  0.00546724  0.40981353  0.22904842    -0.39000
O550        O  0.00794819  0.44043398  0.23107883    -0.38900
O551        O  0.97310442  0.40390075  0.01513702    -0.39600
O552        O  0.97850389  0.43545580  0.02341766    -0.39700
C553        C  0.33701517  0.09683563  0.00601936    -0.12000
C554        C  0.31625581  0.08653891  0.49040649     0.05100
C555        C  0.31318156  0.08371404  0.44544429    -0.07200
C556        C  0.33049236  0.09260376  0.41754765    -0.08000
C557        C  0.35107849  0.10412808  0.43323008    -0.02500
C558        C  0.35424391  0.10536012  0.47817158     0.04300
N559        N  0.37488420  0.11657279  0.49604536     0.66800
H560        H  0.33984539  0.09906540  0.04026233     0.15700
H561        H  0.32770181  0.09127705  0.38324415     0.15400
N562        N  0.29262621  0.07308424  0.42709340     0.74500
O563        O  0.38313834  0.13579685  0.00424968    -0.39000
O564        O  0.38588091  0.10791154  0.49857720    -0.38900
O565        O  0.28484829  0.08366643  0.41261009    -0.39600
O566        O  0.28491938  0.05426639  0.41556183    -0.39700
C567        C  0.41844747  0.21499148  0.20893991    -0.12000
C568        C  0.39895593  0.21014726  0.19134175     0.05100
C569        C  0.38082366  0.19139813  0.20414676    -0.07200
C570        C  0.38239183  0.17812995  0.23390711    -0.08000
C571        C  0.40170048  0.18304016  0.25223683    -0.02500
C572        C  0.41999884  0.20159705  0.23899736     0.04300
N573        N  0.44027562  0.20700214  0.25512862     0.66800
H574        H  0.43254378  0.22912593  0.19913489     0.15700
H575        H  0.36811791  0.16419801  0.24382947     0.15400
N576        N  0.36036043  0.18608004  0.18938824     0.74500
O577        O  0.45172702  0.20211165  0.23371938    -0.39000
O578        O  0.44844069  0.22054226  0.28441881    -0.38900
O579        O  0.35176155  0.17246377  0.16036567    -0.39600
O580        O  0.34915203  0.19070696  0.21233898    -0.39700
C581        C  0.41249718  0.21150597  0.00461361    -0.12000
C582        C  0.39634001  0.21626320  0.00079444     0.05100
C583        C  0.38225600  0.20792899  0.46641672    -0.07200
C584        C  0.38437453  0.19477256  0.43709878    -0.08000
C585        C  0.40034494  0.18969145  0.44142696    -0.02500
C586        C  0.41458910  0.19835738  0.47579010     0.04300
N587        N  0.43074598  0.19336944  0.98263617     0.66800
H588        H  0.42348047  0.21767827  0.03127827     0.15700
H589        H  0.37321840  0.18835833  0.41078819     0.15400
N590        N  0.36588139  0.21268784  0.46005199     0.74500
O591        O  0.44924594  0.20636472  0.97105501    -0.39000
O592        O  0.42779817  0.17956689  0.51019110    -0.38900
O593        O  0.36861950  0.22662972  0.43316747    -0.39600
O594        O  0.34743134  0.19958218  0.47176084    -0.39700
C595        C  0.27470047  0.13179945  0.23779506    -0.12000
C596        C  0.26151748  0.14011893  0.22996293     0.05100
C597        C  0.24974352  0.13471830  0.19172133    -0.07200
C598        C  0.25096453  0.12086173  0.16297200    -0.08000
C599        C  0.26426868  0.11268680  0.17064462    -0.02500
C600        C  0.27639357  0.11843565  0.20842904     0.04300
N601        N  0.29028213  0.11074625  0.21791061     0.66800
H602        H  0.28403244  0.13584130  0.26695489     0.15700
H603        H  0.24195600  0.11710016  0.13340255     0.15400
N604        N  0.23761639  0.14415123  0.18007120     0.74500
O605        O  0.30953234  0.12199360  0.20895686    -0.39000
O606        O  0.28468480  0.09619555  0.24503752    -0.38900
O607        O  0.24554669  0.15975095  0.15515870    -0.39600
O608        O  0.21797332  0.13404088  0.18546189    -0.39700
C609        C  0.24342492  0.11163711  0.46078035    -0.12000
C610        C  0.26203864  0.11835424  0.48402958     0.05100
C611        C  0.27934612  0.13854710  0.47603414    -0.07200
C612        C  0.27778186  0.15134934  0.44525767    -0.08000
C613        C  0.25947261  0.14450716  0.42102145    -0.02500
C614        C  0.24198299  0.12441693  0.42930629     0.04300
N615        N  0.22285774  0.11642146  0.40561313     0.66800
H616        H  0.22998667  0.09621486  0.46647684     0.15700
H617        H  0.29145434  0.16659120  0.43935063     0.15400
N618        N  0.29943421  0.14595411  0.99602435     0.74500
O619        O  0.21979993  0.10452620  0.37404872    -0.39000
O620        O  0.20732932  0.11640752  0.42280524    -0.38900
O621        O  0.31387509  0.14519388  0.97572748    -0.39600
O622        O  0.30413751  0.15792221  0.02806617    -0.39700
C623        C  0.34860855  0.24598434  0.22509543    -0.12000
C624        C  0.34373536  0.24099870  0.18140827     0.05100
C625        C  0.32240660  0.22922690  0.16934711    -0.07200
C626        C  0.30670860  0.22178149  0.20075527    -0.08000
C627        C  0.31165798  0.22511423  0.24464684    -0.02500
C628        C  0.33286643  0.23796231  0.25671163     0.04300
N629        N  0.33887770  0.24274611  0.30070533     0.66800
H630        H  0.36478143  0.25510473  0.23519221     0.15700
H631        H  0.29060787  0.21199909  0.19065223     0.15400
N632        N  0.31625240  0.22344786  0.12573710     0.74500
O633        O  0.34421534  0.23147334  0.32140709    -0.39000
O634        O  0.34434378  0.26083192  0.31449279    -0.38900
O635        O  0.31130058  0.20525732  0.11350224    -0.39600
O636        O  0.31035476  0.23394382  0.10387819    -0.39700
C637        C  0.20074154  0.20903274  0.39758634    -0.12000
C638        C  0.21272498  0.23057000  0.40580526     0.05100
C639        C  0.23448850  0.24124510  0.39723570    -0.07200
C640        C  0.24365224  0.23043410  0.37941753    -0.08000
C641        C  0.23157886  0.20907508  0.36963875    -0.02500
C642        C  0.20994033  0.19822051  0.37945223     0.04300
N643        N  0.19726647  0.17617578  0.37285019     0.66800
H644        H  0.18401387  0.20060280  0.40442188     0.15700
H645        H  0.26041394  0.23892967  0.37287670     0.15400
N646        N  0.24767902  0.26285214  0.40780999     0.74500
O647        O  0.19425687  0.16392730  0.40377093    -0.39000
O648        O  0.18511227  0.16952382  0.34090885    -0.38900
O649        O  0.25744850  0.26760357  0.44304540    -0.39600
O650        O  0.25377357  0.27638194  0.37831143    -0.39700
C651        C  0.22139538  0.30520332  0.06534756    -0.12000
C652        C  0.22456012  0.30920999  0.02101951     0.05100
C653        C  0.23823333  0.32988249  0.00718234    -0.07200
C654        C  0.24657469  0.34622345  0.03702691    -0.08000
C655        C  0.24131510  0.34255471  0.08082128    -0.02500
C656        C  0.22948056  0.32160768  0.09524959     0.04300
N657        N  0.22474262  0.31656195  0.13965797     0.66800
H658        H  0.21139422  0.28940742  0.07682830     0.15700
H659        H  0.25607931  0.36202768  0.02517526     0.15400
N660        N  0.24315698  0.33463306  0.46296861     0.74500
O661        O  0.20694627  0.31235540  0.15361182    -0.39000
O662        O  0.23524697  0.31033211  0.16058530    -0.38900
O663        O  0.23404153  0.34243235  0.44213539    -0.39600
O664        O  0.26001996  0.33648930  0.44849114    -0.39700
C665        C  0.13308534  0.27438075  0.02447249    -0.12000
C666        C  0.13517001  0.25650692  0.02225626     0.05100
C667        C  0.12234787  0.23926454  0.04884735    -0.07200
C668        C  0.10938532  0.24101638  0.07944192    -0.08000
C669        C  0.10866095  0.25959003  0.08401505    -0.02500
C670        C  0.12001516  0.27606873  0.05470807     0.04300
N671        N  0.11880838  0.29476108  0.05531917     0.66800
H672        H  0.14196244  0.28734612  0.50300783     0.15700
H673        H  0.10024946  0.22781369  0.10068163     0.15400
N674        N  0.12220221  0.21991561  0.04545824     0.74500
O675        O  0.13243444  0.31041635  0.57424059    -0.39000
O676        O  0.10790271  0.29722822  0.02719239    -0.38900
O677        O  0.13166905  0.21537502  0.07341703    -0.39600
O678        O  0.10836005  0.20550298  0.02254831    -0.39700
C679        C  0.15349218  0.26842336  0.30116486    -0.12000
C680        C  0.14558018  0.25703448  0.33922562     0.05100
C681        C  0.12358118  0.24508051  0.34523447    -0.07200
C682        C  0.10998388  0.24472963  0.31331093    -0.08000
C683        C  0.11787810  0.25638264  0.27540117    -0.02500
C684        C  0.13992303  0.26804001  0.26917770     0.04300
N685        N  0.14877396  0.27967021  0.23056764     0.66800
H686        H  0.17038916  0.27767416  0.29613410     0.15700
H687        H  0.09313458  0.23610081  0.31920678     0.15400
N688        N  0.11491448  0.23481370  0.38522709     0.74500
O689        O  0.15674095  0.29930046  0.23059431    -0.39000
O690        O  0.14655461  0.27018086  0.19556820    -0.38900
O691        O  0.11513017  0.24536984  0.41726079    -0.39600
O692        O  0.10944206  0.21578038  0.38995904    -0.39700
C693        C  0.10347061  0.43178626  0.41596505    -0.12000
C694        C  0.11641916  0.42841844  0.44378109     0.05100
C695        C  0.11766711  0.43424843  0.48730299    -0.07200
C696        C  0.10606622  0.44328737  0.50209127    -0.08000
C697        C  0.09244054  0.44592339  0.47474646    -0.02500
C698        C  0.09117691  0.44002582  0.43112879     0.04300
N699        N  0.07734464  0.44198076  0.40180149     0.66800
H700        H  0.10217282  0.42713052  0.38261812     0.15700
H701        H  0.10755890  0.44780582  0.03584064     0.15400
N702        N  0.13100573  0.43141130  0.01704672     0.74500
O703        O  0.08449590  0.45778041  0.37752794    -0.39000
O704        O  0.06000077  0.42596448  0.39273242    -0.38900
O705        O  0.14777696  0.44693780  0.52880410    -0.39600
O706        O  0.12307286  0.41505433  0.03978702    -0.39700
C707        C  0.18970110  0.38543779  0.06181650    -0.12000
C708        C  0.21123134  0.40022413  0.05763749     0.05100
C709        C  0.21775990  0.41492854  0.02388776    -0.07200
C710        C  0.20287248  0.41418685  0.49477739    -0.08000
C711        C  0.18148802  0.39886094  0.49821812    -0.02500
C712        C  0.17493898  0.38460042  0.03255465     0.04300
N713        N  0.15335738  0.36912051  0.03865871     0.66800
H714        H  0.18417443  0.37416176  0.08761994     0.15700
H715        H  0.20823108  0.42529191  0.46871508     0.15400
N716        N  0.23928812  0.43049247  0.51801494     0.74500
O717        O  0.14673326  0.35085670  0.02454308    -0.39000
O718        O  0.14282110  0.37206720  0.06689302    -0.38900
O719        O  0.24982396  0.42780160  0.48937122    -0.39600
O720        O  0.24577829  0.44868226  0.53243671    -0.39700
C721        C  0.19787555  0.41578537  0.28281953    -0.12000
C722        C  0.18871591  0.39933330  0.31263877     0.05100
C723        C  0.19424397  0.38353927  0.31113390    -0.07200
C724        C  0.20808739  0.38418483  0.27968395    -0.08000
C725        C  0.21674466  0.40023857  0.24907017    -0.02500
C726        C  0.21168756  0.41634918  0.25110166     0.04300
N727        N  0.21955187  0.43287989  0.22017287     0.66800
H728        H  0.19383399  0.42799161  0.28321730     0.15700
H729        H  0.21180350  0.37174736  0.27893383     0.15400
N730        N  0.18587602  0.36651248  0.34092333     0.74500
O731        O  0.20883381  0.43082408  0.18702082    -0.39000
O732        O  0.23403601  0.45089123  0.23079510    -0.38900
O733        O  0.17131776  0.34878387  0.32898401    -0.39600
O734        O  0.19637447  0.36779080  0.37394893    -0.39700
C735        C  0.09089523  0.32543724  0.34316883    -0.12000
C736        C  0.09937110  0.34566686  0.32599100     0.05100
C737        C  0.09757106  0.34783022  0.28125905    -0.07200
C738        C  0.08962164  0.33022683  0.25460761    -0.08000
C739        C  0.08308094  0.31028561  0.27145703    -0.02500
C740        C  0.08275779  0.30781260  0.31653228     0.04300
N741        N  0.07592958  0.28785767  0.33586342     0.66800
H742        H  0.09180268  0.32331284  0.37733882     0.15700
H743        H  0.08950110  0.33236743  0.22023443     0.15400
N744        N  0.10481072  0.36780830  0.26172543     0.74500
O745        O  0.08931282  0.28250073  0.34453537    -0.39000
O746        O  0.05817994  0.27843783  0.35389411    -0.38900
O747        O  0.12221543  0.37652190  0.24228704    -0.39600
O748        O  0.09169365  0.37358425  0.25367834    -0.39700
C749        C  0.24599363  0.00768527  0.11676791    -0.12000
C750        C  0.23429241  0.01766347  0.11021105     0.05100
C751        C  0.21257614  0.00665206  0.11974074    -0.07200
C752        C  0.20325793  0.98625438  0.13626761    -0.08000
C753        C  0.21500220  0.97629130  0.14246358    -0.02500
C754        C  0.23659466  0.98716178  0.13211973     0.04300
N755        N  0.24942269  0.97792478  0.13815846     0.66800
H756        H  0.26269496  0.01586244  0.10955893     0.15700
H757        H  0.18658763  0.97802115  0.14373315     0.15400
N758        N  0.19984458  0.01601857  0.11426267     0.74500
O759        O  0.25295000  0.96944470  0.10657667    -0.39000
O760        O  0.26144293  0.98322325  0.17030718    -0.38900
O761        O  0.18776099  0.01085958  0.08223723    -0.39600
O762        O  0.19620644  0.02412439  0.14636044    -0.39700
C763        C  0.23400157  0.89509865  0.24017617    -0.12000
C764        C  0.22529003  0.90665472  0.25708033     0.05100
C765        C  0.22715290  0.91090050  0.30162407    -0.07200
C766        C  0.23618025  0.90234552  0.32836869    -0.08000
C767        C  0.24316720  0.88922187  0.31200756    -0.02500
C768        C  0.24269420  0.88621406  0.26703910     0.04300
N769        N  0.24902715  0.87262611  0.24817667     0.66800
H770        H  0.23285072  0.89173212  0.20617981     0.15700
H771        H  0.23651273  0.90498205  0.36257690     0.15400
N772        N  0.21834019  0.92225736  0.32110389     0.74500
O773        O  0.23526670  0.85385667  0.24063523    -0.39000
O774        O  0.26637176  0.88054040  0.22861725    -0.38900
O775        O  0.19993234  0.91231187  0.33610374    -0.39600
O776        O  0.23036829  0.94093225  0.33272081    -0.39700
C777        C  0.11256907  0.86586057  0.04581709    -0.12000
C778        C  0.12060763  0.85856286  0.01373082     0.05100
C779        C  0.14241451  0.86583708  0.01270906    -0.07200
C780        C  0.15539219  0.87914070  0.04497697    -0.08000
C781        C  0.14716553  0.88561959  0.07823169    -0.02500
C782        C  0.12557754  0.87929118  0.07789505     0.04300
N783        N  0.11620453  0.88528129  0.11097742     0.66800
H784        H  0.09603900  0.86025899  0.54718912     0.15700
H785        H  0.17189931  0.88411152  0.04433376     0.15400
N786        N  0.15178183  0.85986324  0.97955564     0.74500
O787        O  0.11187146  0.89908020  0.60379093    -0.39000
O788        O  0.10707617  0.87284299  0.14175937    -0.38900
O789        O  0.15947218  0.87158757  0.94718812    -0.39600
O790        O  0.15726158  0.84655835  0.98774622    -0.39700
C791        C  0.11518817  0.84047300  0.29621103    -0.12000
C792        C  0.10923284  0.84901840  0.32968524     0.05100
C793        C  0.11605800  0.87066449  0.32899597    -0.07200
C794        C  0.12969495  0.88337569  0.29663813    -0.08000
C795        C  0.13670718  0.87500003  0.26464931    -0.02500
C796        C  0.12870909  0.85312144  0.26381246     0.04300
N797        N  0.13437382  0.84336976  0.23098732     0.66800
H798        H  0.10973727  0.82385536  0.29562840     0.15700
H799        H  0.13543303  0.90003265  0.29762580     0.15400
N800        N  0.11034497  0.88033025  0.36192523     0.74500
O801        O  0.14684085  0.83688118  0.23994133    -0.39000
O802        O  0.12286417  0.83627924  0.19817853    -0.38900
O803        O  0.12311240  0.88976934  0.39203679    -0.39600
O804        O  0.09584661  0.88431145  0.35471406    -0.39700
C805        C  0.12107322  0.65419500  0.21776282    -0.12000
C806        C  0.09950224  0.64385132  0.22714026     0.05100
C807        C  0.08802804  0.65391142  0.21710403    -0.07200
C808        C  0.09818018  0.67387991  0.19876243    -0.08000
C809        C  0.11968712  0.68428335  0.18898987    -0.02500
C810        C  0.13120176  0.67412070  0.19837217     0.04300
N811        N  0.15316766  0.68381942  0.18951390     0.66800
H812        H  0.13010217  0.64663290  0.22492900     0.15700
H813        H  0.08898120  0.68130028  0.19194636     0.15400
N814        N  0.06609650  0.64437844  0.22630804     0.74500
O815        O  0.16610475  0.69465213  0.21838387    -0.39000
O816        O  0.15923233  0.67683886  0.15913877    -0.38900
O817        O  0.06024971  0.65056435  0.25840887    -0.39600
O818        O  0.05299427  0.63429033  0.19711251    -0.39700
C819        C  0.20646859  0.78553077  0.04806236    -0.12000
C820        C  0.19064760  0.78873951  0.06465096     0.05100
C821        C  0.18973779  0.80660269  0.05146397    -0.07200
C822        C  0.20406741  0.82031807  0.02107543    -0.08000
C823        C  0.21938883  0.81665456  0.00306826    -0.02500
C824        C  0.22086936  0.79956783  0.51861167     0.04300
N825        N  0.23669464  0.79547799  0.50299333     0.66800
H826        H  0.20746329  0.77220590  0.55868227     0.15700
H827        H  0.20251842  0.83341837  0.01011453     0.15400
N828        N  0.17349239  0.81031591  0.06613574     0.74500
O829        O  0.25328358  0.80165988  0.52456102    -0.39000
O830        O  0.23197325  0.78161635  0.47467027    -0.38900
O831        O  0.17803884  0.82528147  0.09157853    -0.39600
O832        O  0.15626188  0.80217872  0.04615444    -0.39700
C833        C  0.20045448  0.78021737  0.25358475    -0.12000
C834        C  0.17960420  0.77604929  0.25417471     0.05100
C835        C  0.17334337  0.78481597  0.28720073    -0.07200
C836        C  0.18813422  0.79804409  0.31744161    -0.08000
C837        C  0.20928002  0.80308367  0.31532537    -0.02500
C838        C  0.21527831  0.79370599  0.28324176     0.04300
N839        N  0.23650582  0.79839210  0.27875133     0.66800
H840        H  0.20570187  0.77366256  0.22860582     0.15700
H841        H  0.18306224  0.80494240  0.34202983     0.15400
N842        N  0.15226174  0.78077398  0.29049183     0.74500
O843        O  0.24196803  0.78634171  0.29566917    -0.39000
O844        O  0.24778846  0.81084748  0.24956980    -0.38900
O845        O  0.14059978  0.76886899  0.31997224    -0.39600
O846        O  0.14751877  0.79320171  0.27274345    -0.39700
C847        C  0.09577936  0.76480689  0.08436308    -0.12000
C848        C  0.10483277  0.75349540  0.06780116     0.05100
C849        C  0.10412267  0.75031926  0.02281577    -0.07200
C850        C  0.09529127  0.75893390  0.49540024    -0.08000
C851        C  0.08758420  0.77162409  0.01226444    -0.02500
C852        C  0.08742206  0.77397975  0.05736746     0.04300
N853        N  0.08066812  0.78720313  0.07638759     0.66800
H854        H  0.09625424  0.76766647  0.11859225     0.15700
H855        H  0.09552826  0.75683491  0.46097895     0.15400
N856        N  0.11307714  0.73905534  0.00354761     0.74500
O857        O  0.09405781  0.80611203  0.08380702    -0.39000
O858        O  0.06313949  0.77898515  0.09528356    -0.38900
O859        O  0.10107164  0.72050997  0.99113215    -0.39600
O860        O  0.13079426  0.74794976  0.48832125    -0.39700
C861        C  0.57101450  0.56594915  0.07719588    -0.12000
C862        C  0.55818270  0.57361021  0.09192828     0.05100
C863        C  0.55490344  0.57385317  0.13660668    -0.07200
C864        C  0.56334792  0.56533214  0.16515183    -0.08000
C865        C  0.57513535  0.55642125  0.15023688    -0.02500
C866        C  0.57950924  0.55745592  0.10568444     0.04300
N867        N  0.59161078  0.54902153  0.08812399     0.66800
H868        H  0.57377918  0.56572529  0.04319806     0.15700
H869        H  0.55977216  0.56480136  0.19892685     0.15400
N870        N  0.54162598  0.58111713  0.15339569     0.74500
O871        O  0.58225231  0.53040453  0.07460670    -0.39000
O872        O  0.61010278  0.56142177  0.07552318    -0.38900
O873        O  0.52203153  0.56881918  0.15550118    -0.39600
O874        O  0.54911707  0.60034922  0.16099573    -0.39700
C875        C  0.41485593  0.32189195  0.06172644    -0.12000
C876        C  0.42486550  0.31004930  0.05892659     0.05100
C877        C  0.44470098  0.31898617  0.03871104    -0.07200
C878        C  0.45411872  0.33943685  0.02229009    -0.08000
C879        C  0.44434477  0.35150865  0.02596727    -0.02500
C880        C  0.42437596  0.34243622  0.04593972     0.04300
N881        N  0.41342750  0.35374386  0.55028059     0.66800
H882        H  0.39949019  0.31517576  0.07668662     0.15700
H883        H  0.46936314  0.34597823  0.00689398     0.15400
N884        N  0.45510766  0.30727541  0.03265253     0.74500
O885        O  0.40005719  0.35130792  0.52214747    -0.39000
O886        O  0.41294868  0.36131741  0.58627626    -0.38900
O887        O  0.45410877  0.29921382  0.99639782    -0.39600
O888        O  0.46960814  0.31009095  0.05814867    -0.39700
C889        C  0.52491970  0.47327914  0.39476636    -0.12000
C890        C  0.52442426  0.45425519  0.40233909     0.05100
C891        C  0.53870062  0.45032960  0.37961935    -0.07200
C892        C  0.55249057  0.46500264  0.34947517    -0.08000
C893        C  0.55225928  0.48358967  0.34060024    -0.02500
C894        C  0.53836362  0.48769948  0.36416705     0.04300
N895        N  0.53678406  0.50587909  0.35610204     0.66800
H896        H  0.51417181  0.47676762  0.41156641     0.15700
H897        H  0.56298028  0.46142312  0.33190416     0.15400
N898        N  0.53928125  0.43147813  0.38589216     0.74500
O899        O  0.52204471  0.50429965  0.33277609    -0.39000
O900        O  0.54650139  0.52163555  0.38011871    -0.38900
O901        O  0.53084342  0.41710681  0.35827526    -0.39600
O902        O  0.55272553  0.43161582  0.41120494    -0.39700
C903        C  0.53249205  0.44563667  0.09216770    -0.12000
C904        C  0.51226645  0.44319441  0.09136181     0.05100
C905        C  0.50686726  0.45334861  0.12286616    -0.07200
C906        C  0.52182880  0.46621755  0.15305088    -0.08000
C907        C  0.54246468  0.46970398  0.15227566    -0.02500
C908        C  0.54760428  0.45884128  0.12193307     0.04300
N909        N  0.56813896  0.46138691  0.11978335     0.66800
H910        H  0.53697797  0.43793525  0.06841746     0.15700
H911        H  0.51735008  0.47415043  0.17626817     0.15400
N912        N  0.48647991  0.45120626  0.12445473     0.74500
O913        O  0.57131442  0.44771298  0.13677285    -0.39000
O914        O  0.58090212  0.47355620  0.09193921    -0.38900
O915        O  0.47355811  0.43941117  0.15250032    -0.39600
O916        O  0.48363147  0.46492797  0.10665194    -0.39700
C917        C  0.34243541  0.45722806  0.21585013    -0.12000
C918        C  0.35278711  0.44575178  0.22029483     0.05100
C919        C  0.34224326  0.42448912  0.20765504    -0.07200
C920        C  0.32160784  0.41514745  0.19227287    -0.08000
C921        C  0.31131083  0.42666890  0.18775597    -0.02500
C922        C  0.32203388  0.44802066  0.19920386     0.04300
N923        N  0.31224811  0.46043752  0.19568837     0.66800
H924        H  0.35033627  0.47362077  0.22490456     0.15700
H925        H  0.31361642  0.39872217  0.18340982     0.15400
N926        N  0.35195207  0.41196559  0.21096911     0.74500
O927        O  0.30328559  0.46261857  0.22817068    -0.39000
O928        O  0.31725305  0.47319795  0.16492075    -0.38900
O929        O  0.34717239  0.39940524  0.24205289    -0.39600
O930        O  0.36030452  0.40928645  0.17802591    -0.39700
C931        C  0.47595348  0.53130707  0.33890562    -0.12000
C932        C  0.45485047  0.52637184  0.34102052     0.05100
C933        C  0.44922022  0.53674964  0.37166658    -0.07200
C934        C  0.46430619  0.55061987  0.40077797    -0.08000
C935        C  0.48490624  0.55400265  0.40101741    -0.02500
C936        C  0.49081913  0.54462582  0.36876459     0.04300
N937        N  0.51137479  0.54720025  0.36740024     0.66800
H938        H  0.48084831  0.52383879  0.31533423     0.15700
H939        H  0.45941188  0.55779256  0.42503715     0.15400
N940        N  0.42812843  0.53255706  0.37570048     0.74500
O941        O  0.51501590  0.53490011  0.38892391    -0.39000
O942        O  0.52368566  0.55766473  0.33729434    -0.38900
O943        O  0.41667918  0.52044981  0.40515628    -0.39600
O944        O  0.42320492  0.54502038  0.35878093    -0.39700
C945        C  0.46163170  0.54552882  0.11642955    -0.12000
C946        C  0.47259364  0.53884577  0.09020102     0.05100
C947        C  0.46873422  0.51813644  0.09505577    -0.07200
C948        C  0.45505501  0.50516816  0.12715387    -0.11600
C949        C  0.44479841  0.51219982  0.15459432    -0.02500
C950        C  0.44781253  0.53249589  0.14823204     0.04300
N951        N  0.43776149  0.54060748  0.17484243     0.66800
H952        H  0.46413922  0.56121552  0.11301790     0.15700
H953        H  0.45285448  0.48962407  0.13118806     0.15400
N954        N  0.47894292  0.51008154  0.06872147     0.74500
O955        O  0.44794375  0.55278521  0.20524571    -0.39000
O956        O  0.42127099  0.53998987  0.16156974    -0.38900
O957        O  0.49564080  0.51111480  0.08191390    -0.39600
O958        O  0.46874662  0.49755252  0.03879983    -0.39700
C959        C  0.44015621  0.41836700  0.36013497    -0.12000
C960        C  0.43638373  0.41972695  0.40390430     0.05100
C961        C  0.42333774  0.42779106  0.41558349    -0.07200
C962        C  0.41609482  0.43613734  0.38399418    -0.08000
C963        C  0.42173356  0.43677296  0.34060449    -0.02500
C964        C  0.43312062  0.42688027  0.32858523     0.04300
N965        N  0.43874217  0.42625736  0.28493008     0.66800
H966        H  0.44986093  0.41196179  0.35033427     0.15700
H967        H  0.40690880  0.44309551  0.39393104     0.15400
N968        N  0.41756979  0.42802244  0.45929248     0.74500
O969        O  0.45677539  0.43979472  0.27187197    -0.39000
O970        O  0.42833711  0.40956988  0.26381143    -0.38900
O971        O  0.42660130  0.44495444  0.48008275    -0.39600
O972        O  0.40041966  0.41311791  0.47307606    -0.39700
C973        C  0.90720332  0.57877686  0.06857471    -0.12000
C974        C  0.88525515  0.56889449  0.06631421     0.05100
C975        C  0.87406405  0.54898792  0.04680657    -0.07200
C976        C  0.88499406  0.53980955  0.02865137    -0.08000
C977        C  0.90702268  0.54984098  0.03040037    -0.02500
C978        C  0.91809753  0.56939882  0.05155003     0.04300
N979        N  0.94047723  0.58036573  0.05492650     0.66800
H980        H  0.91605179  0.59404383  0.08357153     0.15700
H981        H  0.87613775  0.52468454  0.01312793     0.15400
N982        N  0.85171143  0.53834460  0.04312922     0.74500
O983        O  0.95129979  0.59457333  0.02810616    -0.39000
O984        O  0.94885205  0.57944863  0.08958241    -0.38900
O985        O  0.84353701  0.54025588  0.00909171    -0.39600
O986        O  0.84064908  0.52359596  0.06872256    -0.39700
C987        C  0.99437805  0.77789604  0.32927341    -0.12000
C988        C  0.97739082  0.77025405  0.35776676     0.05100
C989        C  0.98132761  0.77254255  0.40241369    -0.07200
C990        C  0.00198730  0.78154816  0.41759846    -0.08000
C991        C  0.01884855  0.78798964  0.38905750    -0.02500
C992        C  0.01496253  0.78653437  0.34442840     0.04300
N993        N  0.03172236  0.79416275  0.31394361     0.66800
H994        H  0.99162769  0.77641732  0.29495740     0.15700
H995        H  0.00479210  0.78300167  0.45188805     0.15400
N996        N  0.96466079  0.76629606  0.43276372     0.74500
O997        O  0.03636993  0.78149838  0.29706336    -0.39000
O998        O  0.03769481  0.81158557  0.29599620    -0.38900
O999        O  0.95821408  0.74940949  0.45324437    -0.39600
O1000       O  0.96056487  0.77984696  0.44693458    -0.39700
C1001       C  0.90042831  0.66497537  0.25714440    -0.12000
C1002       C  0.91476310  0.68479505  0.24059026     0.05100
C1003       C  0.92097208  0.68636391  0.19714054    -0.07200
C1004       C  0.91115767  0.66875204  0.17037254    -0.08000
C1005       C  0.89544028  0.64933900  0.18616753    -0.02500
C1006       C  0.89066233  0.64737895  0.23053513     0.04300
N1007       N  0.87447543  0.62823211  0.24864675     0.66800
H1008       H  0.89546317  0.66330926  0.29027260     0.15700
H1009       H  0.91539709  0.67045556  0.13679122     0.15400
N1010       N  0.93675528  0.70574842  0.17915090     0.74500
O1011       O  0.85608153  0.62529729  0.25138474    -0.39000
O1012       O  0.87956074  0.61748065  0.27185131    -0.38900
O1013       O  0.95539845  0.70935740  0.17690019    -0.39600
O1014       O  0.93131772  0.71630020  0.15620038    -0.39700
C1015       C  0.67908639  0.57583644  0.29242910    -0.12000
C1016       C  0.68693315  0.56294988  0.30604003     0.05100
C1017       C  0.67418521  0.54106172  0.30111556    -0.07200
C1018       C  0.65411821  0.53264197  0.28272458    -0.08000
C1019       C  0.64614686  0.54558526  0.27021190    -0.02500
C1020       C  0.65890807  0.56743813  0.27524130     0.04300
N1021       N  0.65187099  0.58146012  0.26238626     0.66800
H1022       H  0.68858845  0.59269312  0.29571881     0.15700
H1023       H  0.64447168  0.51580643  0.27937586     0.15400
N1024       N  0.68130619  0.52714451  0.31416089     0.74500
O1025       O  0.64416592  0.58806195  0.29025783    -0.39000
O1026       O  0.65845804  0.59132586  0.22746654    -0.38900
O1027       O  0.67583966  0.51837646  0.35039953    -0.39600
O1028       O  0.68808894  0.51967549  0.28616342    -0.39700
C1029       C  0.78989862  0.60994360  0.22112322    -0.12000
C1030       C  0.78010312  0.59235262  0.24796621     0.05100
C1031       C  0.78398275  0.57566149  0.24109443    -0.07200
C1032       C  0.79822171  0.57738192  0.20940733    -0.08000
C1033       C  0.80869631  0.59535300  0.18379222    -0.02500
C1034       C  0.80400148  0.61159540  0.18920471     0.04300
N1035       N  0.81384726  0.63023204  0.16379043     0.66800
H1036       H  0.78698957  0.62282867  0.22547708     0.15700
H1037       H  0.80140746  0.56465681  0.20552445     0.15400
N1038       N  0.77419411  0.55708244  0.26666169     0.74500
O1039       O  0.82920904  0.64654587  0.17917317    -0.39000
O1040       O  0.80401009  0.63187553  0.13226500    -0.38900
O1041       O  0.75981258  0.54035923  0.25034657    -0.39600
O1042       O  0.78332271  0.55613083  0.30014419    -0.39700
C1043       C  0.81084647  0.61253165  0.43818039    -0.12000
C1044       C  0.79189978  0.59340148  0.43350128     0.05100
C1045       C  0.78910663  0.57598492  0.45744959    -0.07200
C1046       C  0.80438701  0.57825084  0.98747612    -0.08000
C1047       C  0.82269655  0.59771428  0.99414241    -0.02500
C1048       C  0.82619674  0.61488080  0.46780754     0.04300
N1049       N  0.84497177  0.63477810  0.47122804     0.66800
H1050       H  0.81364766  0.62611496  0.41940030     0.15700
H1051       H  0.80150539  0.56469635  0.00647094     0.15400
N1052       N  0.77109157  0.55556836  0.95199380     0.74500
O1053       O  0.85958441  0.63956030  0.44449101    -0.39000
O1054       O  0.84472022  0.64907875  0.49286738    -0.38900
O1055       O  0.77200590  0.54302842  0.92580742    -0.39600
O1056       O  0.75684029  0.54854458  0.98017593    -0.39700
C1057       C  0.85198687  0.71542714  0.45553145    -0.12000
C1058       C  0.84956005  0.73296600  0.46096891     0.05100
C1059       C  0.86179307  0.75089225  0.43548071    -0.07200
C1060       C  0.87623045  0.75092050  0.40606172    -0.08000
C1061       C  0.87875915  0.73338766  0.40116395    -0.02500
C1062       C  0.86633187  0.71544019  0.42639003     0.04300
N1063       N  0.86813511  0.69710541  0.42355534     0.66800
H1064       H  0.84215230  0.70100906  0.97336101     0.15700
H1065       H  0.88552536  0.76487438  0.38675421     0.15400
N1066       N  0.86013809  0.76926913  0.43926112     0.74500
O1067       O  0.87794073  0.69343647  0.95003996    -0.39000
O1068       O  0.85493971  0.68182353  0.40143690    -0.38900
O1069       O  0.87382601  0.78454462  0.46066424    -0.39600
O1070       O  0.84933142  0.77242611  0.41205540    -0.39700
C1071       C  0.87011158  0.74829583  0.14781129    -0.12000
C1072       C  0.84876730  0.73332336  0.15367447     0.05100
C1073       C  0.84264335  0.72079750  0.19091210    -0.07200
C1074       C  0.85774649  0.72320506  0.22086586    -0.08000
C1075       C  0.87917425  0.73768417  0.21460520    -0.02500
C1076       C  0.88535798  0.75045831  0.17762223     0.04300
N1077       N  0.90698335  0.76469566  0.16838961     0.66800
H1078       H  0.87515621  0.75790814  0.11899449     0.15700
H1079       H  0.85254036  0.71332815  0.24929778     0.15400
N1080       N  0.82115622  0.70563484  0.19915631     0.74500
O1081       O  0.91723770  0.75834873  0.14693792    -0.39000
O1082       O  0.91399534  0.78411700  0.17172381    -0.38900
O1083       O  0.81463748  0.68660317  0.19111570    -0.39600
O1084       O  0.81046866  0.71040144  0.22339591    -0.39700
C1085       C  0.75772487  0.67423397  0.45273653    -0.12000
C1086       C  0.76367533  0.67176208  0.49429947     0.05100
C1087       C  0.75956063  0.65167052  0.50699826    -0.07200
C1088       C  0.75161585  0.63529671  0.47719848    -0.08000
C1089       C  0.74804567  0.63847725  0.43433169    -0.02500
C1090       C  0.75010869  0.65788010  0.42270301     0.04300
N1091       N  0.74468495  0.66137058  0.38070557     0.66800
H1092       H  0.76014503  0.68928482  0.44252570     0.15700
H1093       H  0.74991647  0.62046541  0.48695081     0.15400
N1094       N  0.76486211  0.64784421  0.54883317     0.74500
O1095       O  0.72647359  0.65845346  0.37440041    -0.39000
O1096       O  0.75914598  0.67257337  0.35460562    -0.38900
O1097       O  0.75055318  0.63769420  0.07601336    -0.39600
O1098       O  0.78238318  0.64898336  0.55442787    -0.39700
C1099       C  0.56681771  0.00037121  0.32587515    -0.12000
C1100       C  0.56051353  0.98047842  0.34284487     0.05100
C1101       C  0.56496350  0.97892458  0.38645990    -0.07200
C1102       C  0.57306638  0.99665334  0.41303490    -0.08000
C1103       C  0.57740254  0.01612756  0.39670485    -0.02500
C1104       C  0.57509467  0.01806701  0.35216526     0.04300
N1105       N  0.57869830  0.03730970  0.33367859     0.66800
H1106       H  0.56388061  0.00208490  0.29252154     0.15700
H1107       H  0.57527823  0.99501656  0.44683678     0.15400
N1108       N  0.56093141  0.95950654  0.40472564     0.74500
O1109       O  0.59526077  0.04828951  0.31231773    -0.39000
O1110       O  0.56342704  0.04039662  0.32929723    -0.38900
O1111       O  0.57564786  0.95544900  0.40619422    -0.39600
O1112       O  0.54517185  0.94952672  0.42882593    -0.39700
C1113       C  0.46140932  0.11807374  0.28107417    -0.12000
C1114       C  0.44902288  0.09758527  0.26570036     0.05100
C1115       C  0.42697985  0.08761687  0.26981090    -0.07200
C1116       C  0.41786199  0.09807863  0.28969806    -0.08000
C1117       C  0.43023317  0.11843701  0.30594314    -0.02500
C1118       C  0.45226971  0.12851917  0.30121865     0.04300
N1119       N  0.46558463  0.14954719  0.31529990     0.66800
H1120       H  0.47838315  0.12594032  0.27815007     0.15700
H1121       H  0.40087211  0.09015189  0.29227225     0.15400
N1122       N  0.41353896  0.06727766  0.25226452     0.74500
O1123       O  0.47487674  0.15278660  0.35090407    -0.39000
O1124       O  0.47202767  0.16424468  0.28829240    -0.38900
O1125       O  0.40447259  0.05176458  0.27721388    -0.39600
O1126       O  0.40674751  0.06574935  0.21447107    -0.39700
C1127       C  0.53153429  0.08504715  0.33642329    -0.12000
C1128       C  0.51225765  0.06655442  0.32969917     0.05100
C1129       C  0.50756034  0.04871557  0.35456671    -0.07200
C1130       C  0.52229412  0.04964399  0.38420328    -0.08000
C1131       C  0.54190055  0.06794018  0.38969811    -0.02500
C1132       C  0.54636026  0.08586761  0.36558108     0.04300
N1133       N  0.56592416  0.10496291  0.36955646     0.66800
H1134       H  0.53558998  0.09901011  0.31769830     0.15700
H1135       H  0.51839871  0.03562055  0.40256284     0.15400
N1136       N  0.48806329  0.02952932  0.35034025     0.74500
O1137       O  0.58068548  0.10849699  0.34409227    -0.39000
O1138       O  0.56651482  0.12003874  0.38978027    -0.38900
O1139       O  0.48712708  0.01543246  0.32602465    -0.39600
O1140       O  0.47421661  0.02459657  0.37897119    -0.39700
C1141       C  0.53281290  0.05933144  0.14490502    -0.12000
C1142       C  0.52680319  0.07456835  0.14082987     0.05100
C1143       C  0.53509483  0.08894778  0.10647321    -0.07200
C1144       C  0.54808872  0.08704819  0.07609120    -0.08000
C1145       C  0.55281208  0.07084758  0.07868152    -0.02500
C1146       C  0.54547222  0.05723095  0.11426289     0.04300
N1147       N  0.55043154  0.04099948  0.11974181     0.66800
H1148       H  0.52704107  0.04832168  0.17145438     0.15700
H1149       H  0.55370437  0.09780462  0.04909435     0.15400
N1150       N  0.52971138  0.10484233  0.10043752     0.74500
O1151       O  0.56531044  0.04408387  0.14440489    -0.39000
O1152       O  0.53694115  0.02248117  0.10964186    -0.38900
O1153       O  0.54287878  0.12347628  0.11047480    -0.39600
O1154       O  0.51490265  0.10140827  0.07523827    -0.39700
C1155       C  0.32531854  0.90130781  0.42534112    -0.12000
C1156       C  0.31147547  0.88087112  0.43920711     0.05100
C1157       C  0.31818714  0.87171560  0.47037007    -0.07200
C1158       C  0.33867170  0.88292966  0.48661257    -0.08000
C1159       C  0.35285044  0.90331601  0.47229856    -0.02500
C1160       C  0.34540930  0.91323926  0.94301786     0.04300
N1161       N  0.35852724  0.93426141  0.92841091     0.66800
H1162       H  0.31941623  0.90938739  0.90465539     0.15700
H1163       H  0.34342665  0.87560326  0.51076028     0.15400
N1164       N  0.30404500  0.85151419  0.48770663     0.74500
O1165       O  0.36861879  0.93741066  0.89381765    -0.39000
O1166       O  0.35554621  0.94850054  0.94293185    -0.38900
O1167       O  0.30484817  0.83582205  0.47433295    -0.39600
O1168       O  0.29472645  0.85020469  0.52257924    -0.39700
C1169       C  0.44690424  0.93439666  0.38238147    -0.12000
C1170       C  0.44531181  0.92477989  0.42199836     0.05100
C1171       C  0.45561095  0.91316053  0.42778524    -0.07200
C1172       C  0.46816919  0.91239008  0.39484461    -0.08000
C1173       C  0.47049392  0.92278547  0.35580484    -0.02500
C1174       C  0.45901118  0.93320213  0.34912613     0.04300
N1175       N  0.45886967  0.94207962  0.30842773     0.66800
H1176       H  0.43853074  0.94279290  0.37702517     0.15700
H1177       H  0.47684409  0.90433060  0.40059662     0.15400
N1178       N  0.45462269  0.90317152  0.46771347     0.74500
O1179       O  0.44495337  0.93090553  0.28138046    -0.39000
O1180       O  0.46856829  0.96172550  0.30415705    -0.38900
O1181       O  0.44558831  0.88581302  0.97624437    -0.39600
O1182       O  0.46890714  0.91277810  0.49516479    -0.39700
C1183       C  0.45028946  0.91108619  0.12134978    -0.12000
C1184       C  0.45262168  0.93049353  0.10995918     0.05100
C1185       C  0.46922199  0.94892337  0.12798823    -0.07200
C1186       C  0.48315003  0.94765778  0.15653430    -0.08000
C1187       C  0.48079387  0.92827199  0.16846653    -0.02500
C1188       C  0.46413617  0.90979351  0.15041979     0.04300
N1189       N  0.46100483  0.88958600  0.16077702     0.66800
H1190       H  0.43779472  0.89687939  0.10740554     0.15700
H1191       H  0.49539455  0.96196410  0.17066075     0.15400
N1192       N  0.47143732  0.96900063  0.12002320     0.74500
O1193       O  0.44701644  0.87839113  0.18774314    -0.39000
O1194       O  0.46763848  0.88098876  0.13514092    -0.38900
O1195       O  0.46306028  0.97588616  0.14565766    -0.39600
O1196       O  0.48580420  0.98162822  0.09522701    -0.39700
C1197       C  0.43011153  0.00319924  0.07350165    -0.12000
C1198       C  0.41950629  0.98315705  0.09191977     0.05100
C1199       C  0.41634531  0.98135413  0.13690165    -0.07200
C1200       C  0.42557341  0.99933417  0.16240661    -0.08000
C1201       C  0.43800661  0.01923428  0.14425939    -0.02500
C1202       C  0.43935918  0.02118068  0.09905004     0.04300
N1203       N  0.45131469  0.04103573  0.07837094     0.66800
H1204       H  0.43241280  0.00497556  0.03906424     0.15700
H1205       H  0.42393537  0.99753133  0.19696198     0.15400
N1206       N  0.40515548  0.96148584  0.15785016     0.74500
O1207       O  0.47024497  0.04745675  0.06872311    -0.39000
O1208       O  0.44174565  0.04900387  0.05986043    -0.38900
O1209       O  0.41539632  0.95409954  0.17580912    -0.39600
O1210       O  0.38634227  0.95474775  0.16894397    -0.39700
C1211       C  0.89520671  0.31575217  0.28425988    -0.12000
C1212       C  0.87584855  0.30791155  0.30548327     0.05100
C1213       C  0.86674592  0.32075903  0.30855195    -0.07200
C1214       C  0.87691834  0.34081870  0.29000964    -0.08000
C1215       C  0.89652141  0.34873757  0.26994696    -0.02500
C1216       C  0.90572656  0.33602544  0.26735071     0.04300
N1217       N  0.92575356  0.34340723  0.24753119     0.66800
H1218       H  0.90255332  0.30624844  0.28150084     0.15700
H1219       H  0.86988701  0.35060078  0.29298224     0.15400
N1220       N  0.84747020  0.31395508  0.33101903     0.74500
O1221       O  0.94194895  0.35068568  0.27078226    -0.39000
O1222       O  0.92658229  0.33794206  0.20954862    -0.38900
O1223       O  0.84803031  0.31916137  0.36978071    -0.39600
O1224       O  0.83066164  0.30737010  0.31003235    -0.39700
C1225       C  0.00879735  0.21016612  0.13636084    -0.12000
C1226       C  0.01870934  0.23204393  0.14041090     0.05100
C1227       C  0.00888539  0.24251193  0.12246405    -0.07200
C1228       C  0.98943340  0.23108646  0.10221274    -0.08000
C1229       C  0.97947484  0.20928345  0.09820903    -0.02500
C1230       C  0.98945181  0.19874577  0.11508228     0.04300
N1231       N  0.97997249  0.17651097  0.11235886     0.66800
H1232       H  0.01621485  0.20186184  0.14931263     0.15700
H1233       H  0.98203720  0.23944596  0.08940641     0.15400
N1234       N  0.01812272  0.26471884  0.12508580     0.74500
O1235       O  0.98594189  0.16877449  0.08330282    -0.39000
O1236       O  0.97053904  0.16550361  0.14475766    -0.38900
O1237       O  0.02643993  0.27564863  0.09196185    -0.39600
O1238       O  0.01298761  0.27243159  0.15565647    -0.39700
C1239       C  0.90505401  0.23462890  0.48756096    -0.12000
C1240       C  0.91034733  0.22042618  0.46998348     0.05100
C1241       C  0.90790197  0.21662210  0.42529141    -0.07200
C1242       C  0.89889053  0.22576638  0.39998204    -0.08000
C1243       C  0.89208448  0.23875012  0.41811195    -0.02500
C1244       C  0.89619941  0.24392215  0.46216846     0.04300
N1245       N  0.89072062  0.25786177  0.48235662     0.66800
H1246       H  0.90649583  0.23760201  0.02194512     0.15700
H1247       H  0.89603380  0.22157562  0.36637993     0.15400
N1248       N  0.91222605  0.20171831  0.40570603     0.74500
O1249       O  0.87306745  0.24971410  0.00369533    -0.39000
O1250       O  0.90484800  0.27663254  0.48847481    -0.38900
O1251       O  0.89734331  0.18323394  0.40014012    -0.39600
O1252       O  0.92907232  0.20810968  0.38488512    -0.39700
C1253       C  0.88086735  0.12267886  0.14761209    -0.12000
C1254       C  0.88539846  0.14356132  0.14978678     0.05100
C1255       C  0.87618137  0.14933648  0.18271356    -0.07200
C1256       C  0.86301141  0.13437281  0.21269160    -0.08000
C1257       C  0.85810985  0.11336738  0.20996384    -0.02500
C1258       C  0.86708068  0.10754791  0.17664994     0.04300
N1259       N  0.86156563  0.08626187  0.17002834     0.66800
H1260       H  0.88733892  0.11776302  0.12205199     0.15700
H1261       H  0.85623258  0.13925270  0.23770989     0.15400
N1262       N  0.87965398  0.17012432  0.18618611     0.74500
O1263       O  0.84691949  0.07521776  0.14420911    -0.39000
O1264       O  0.87455982  0.08058265  0.18000111    -0.38900
O1265       O  0.86587679  0.17392011  0.17186808    -0.39600
O1266       O  0.89266692  0.18237975  0.21351075    -0.39700
C1267       C  0.86102748  0.12352934  0.46917772    -0.12000
C1268       C  0.88265234  0.13470736  0.45981920     0.05100
C1269       C  0.88963630  0.13158012  0.41983602    -0.07200
C1270       C  0.87497211  0.11769770  0.39014017    -0.08000
C1271       C  0.85332144  0.10713250  0.39907375    -0.02500
C1272       C  0.84638816  0.11001986  0.43921223     0.04300
N1273       N  0.82464134  0.09915632  0.45059243     0.66800
H1274       H  0.85530429  0.12551449  0.49976652     0.15700
H1275       H  0.88050851  0.11582405  0.35924205     0.15400
N1276       N  0.91127305  0.14313594  0.40766042     0.74500
O1277       O  0.81730851  0.08224756  0.47139122    -0.39000
O1278       O  0.81474167  0.10899383  0.45063543    -0.38900
O1279       O  0.92231102  0.13460133  0.90959814    -0.39600
O1280       O  0.91764143  0.15931863  0.38478547    -0.39700
C1281       C  0.66003641  0.10176939  0.49151592    -0.12000
C1282       C  0.64326043  0.09490622  0.02086064     0.05100
C1283       C  0.64742344  0.09767507  0.06533777    -0.07200
C1284       C  0.66817043  0.10733701  0.08007216    -0.08000
C1285       C  0.68492144  0.11338817  0.05141833    -0.02500
C1286       C  0.68070352  0.11036555  0.00687775     0.04300
N1287       N  0.69710032  0.11579882  0.47583475     0.66800
H1288       H  0.65701938  0.09947888  0.45731334     0.15700
H1289       H  0.67112683  0.10943566  0.11431014     0.15400
N1290       N  0.63081453  0.09072715  0.09604620     0.74500
O1291       O  0.70012465  0.10157284  0.46140448    -0.39000
O1292       O  0.70414216  0.13270256  0.45512788    -0.38900
O1293       O  0.62556507  0.07422757  0.11715149    -0.39600
O1294       O  0.62544657  0.10345308  0.10956186    -0.39700
C1295       C  0.77715285  0.19469569  0.21057339    -0.12000
C1296       C  0.78488783  0.18503330  0.18325548     0.05100
C1297       C  0.80620057  0.19047782  0.18699165    -0.07200
C1298       C  0.81896181  0.20475964  0.21826642    -0.08000
C1299       C  0.81109321  0.21389330  0.24661355    -0.02500
C1300       C  0.78996392  0.20899318  0.24203595     0.04300
N1301       N  0.78093216  0.21778517  0.26967990     0.66800
H1302       H  0.76095163  0.19086791  0.20815095     0.15700
H1303       H  0.83505184  0.20825136  0.22101320     0.15400
N1304       N  0.81511947  0.18115161  0.16050227     0.74500
O1305       O  0.78027419  0.23370866  0.25729116    -0.39000
O1306       O  0.76898518  0.20676455  0.29975839    -0.38900
O1307       O  0.82652458  0.19134435  0.12908765    -0.39600
O1308       O  0.81585217  0.16547167  0.17432803    -0.39700
C1309       C  0.77950237  0.19652853  0.49563268    -0.12000
C1310       C  0.77697724  0.17633362  0.49630629     0.05100
C1311       C  0.78731540  0.17101598  0.46502196    -0.07200
C1312       C  0.80041533  0.18597580  0.43513092    -0.08000
C1313       C  0.80373217  0.20645776  0.43562048    -0.02500
C1314       C  0.79277952  0.21158182  0.46579148     0.04300
N1315       N  0.79506361  0.23194909  0.46714028     0.66800
H1316       H  0.77159928  0.20091941  0.51910373     0.15700
H1317       H  0.80845043  0.18154231  0.41205661     0.15400
N1318       N  0.78511075  0.15067990  0.46335338     0.74500
O1319       O  0.78215840  0.23526578  0.44696842    -0.39000
O1320       O  0.80636158  0.24464545  0.49590139    -0.38900
O1321       O  0.77321429  0.13781109  0.43543698    -0.39600
O1322       O  0.79824302  0.14742035  0.98037910    -0.39700
C1323       C  0.76206640  0.08605861  0.15455956    -0.12000
C1324       C  0.75213867  0.09614191  0.17301187     0.05100
C1325       C  0.74995132  0.09559629  0.21825905    -0.07200
C1326       C  0.75968670  0.08723335  0.24374556    -0.08000
C1327       C  0.77125449  0.07885127  0.22525788    -0.02500
C1328       C  0.77138291  0.07729156  0.17998887     0.04300
N1329       N  0.78196505  0.06805801  0.15888058     0.66800
H1330       H  0.76355637  0.08584013  0.12000657     0.15700
H1331       H  0.75887934  0.08810378  0.27833870     0.15400
N1332       N  0.73880285  0.10427151  0.23925322     0.74500
O1333       O  0.77118135  0.05022339  0.14202028    -0.39000
O1334       O  0.80079828  0.07960019  0.14721431    -0.38900
O1335       O  0.72013441  0.09213608  0.25123391    -0.39600
O1336       O  0.74900295  0.12222948  0.25587795    -0.39700
C1337       C  0.57829306  0.67749727  0.45972575    -0.12000
C1338       C  0.56586833  0.68435289  0.43901493     0.05100
C1339       C  0.54393175  0.67048479  0.43642374    -0.07200
C1340       C  0.53508235  0.65037215  0.45455218    -0.08000
C1341       C  0.54770714  0.64363246  0.47468552    -0.02500
C1342       C  0.56950786  0.65746118  0.47734212     0.04300
N1343       N  0.58280476  0.65189902  0.00045379     0.66800
H1344       H  0.59512256  0.68780265  0.46253275     0.15700
H1345       H  0.51828548  0.63978976  0.45203382     0.15400
N1346       N  0.53033930  0.67648141  0.41622048     0.74500
O1347       O  0.59388060  0.64648892  0.97918095    -0.39000
O1348       O  0.58784268  0.65791633  0.03873496    -0.38900
O1349       O  0.52336533  0.66961269  0.37917098    -0.39600
O1350       O  0.52100993  0.68337165  0.43912819    -0.39700
C1351       C  0.77564220  0.77000596  0.07944364    -0.12000
C1352       C  0.78044442  0.75799867  0.10704357     0.05100
C1353       C  0.77588183  0.75742023  0.15134786    -0.07200
C1354       C  0.76672271  0.76877421  0.16693567    -0.08000
C1355       C  0.76132336  0.78016181  0.13899958    -0.02500
C1356       C  0.76585117  0.78075441  0.09486947     0.04300
N1357       N  0.76102811  0.79256000  0.06538921     0.66800
H1358       H  0.77909651  0.77071647  0.04544453     0.15700
H1359       H  0.76316249  0.76811204  0.20087321     0.15400
N1360       N  0.78052370  0.74554985  0.18106051     0.74500
O1361       O  0.77484319  0.81121380  0.05701523    -0.39000
O1362       O  0.74550328  0.78306842  0.04056676    -0.38900
O1363       O  0.79584687  0.75499529  0.20638366    -0.39600
O1364       O  0.76665997  0.72687355  0.18913404    -0.39700
C1365       C  0.66695480  0.76063234  0.33643827    -0.12000
C1366       C  0.64646424  0.74881177  0.32024800     0.05100
C1367       C  0.64385186  0.74391741  0.27589663    -0.07200
C1368       C  0.66137926  0.75255917  0.24853290    -0.08000
C1369       C  0.68162564  0.76604885  0.26430744    -0.02500
C1370       C  0.68441996  0.76942709  0.30911157     0.04300
N1371       N  0.70445317  0.78384159  0.32702442     0.66800
H1372       H  0.66944060  0.76459229  0.37024598     0.15700
H1373       H  0.65896644  0.74958617  0.21434659     0.15400
N1374       N  0.62351636  0.73136717  0.25740026     0.74500
O1375       O  0.70987312  0.80294688  0.32978624    -0.39000
O1376       O  0.71416152  0.77695763  0.34872296    -0.38900
O1377       O  0.61515289  0.74021348  0.23756507    -0.39600
O1378       O  0.61676133  0.71215163  0.25111382    -0.39700
C1379       C  0.57841763  0.90174517  0.19130435    -0.12000
C1380       C  0.56796745  0.87985761  0.18938318     0.05100
C1381       C  0.54726428  0.86824222  0.20537853    -0.07200
C1382       C  0.53757239  0.87869356  0.22327461    -0.08000
C1383       C  0.54799596  0.90065278  0.22487981    -0.02500
C1384       C  0.56866135  0.91220731  0.20833592     0.04300
N1385       N  0.58026007  0.93456750  0.20947259     0.66800
H1386       H  0.59439643  0.91089279  0.17935095     0.15700
H1387       H  0.52169684  0.86952909  0.23571376     0.15400
N1388       N  0.53622823  0.84588817  0.20562673     0.74500
O1389       O  0.59282718  0.94366996  0.24005522    -0.39000
O1390       O  0.58190488  0.94470325  0.17565548    -0.38900
O1391       O  0.53643512  0.83639500  0.23915223    -0.39600
O1392       O  0.52245625  0.83606148  0.17736891    -0.39700
C1393       C  0.61672373  0.79611901  0.01533938    -0.12000
C1394       C  0.59745536  0.77980928  0.49934597     0.05100
C1395       C  0.57871961  0.77844935  0.51484418    -0.07200
C1396       C  0.57951501  0.79339569  0.04447426    -0.08000
C1397       C  0.59878511  0.80963843  0.05921356    -0.02500
C1398       C  0.61755482  0.81096271  0.04445043     0.04300
N1399       N  0.63759331  0.82810859  0.05652609     0.66800
H1400       H  0.63132688  0.79779494  0.00348674     0.15700
H1401       H  0.56500860  0.79203731  0.05603606     0.15400
N1402       N  0.55853355  0.76206958  0.50157750     0.74500
O1403       O  0.64813452  0.82567720  0.08554990    -0.39000
O1404       O  0.64322175  0.84627870  0.04292520    -0.38900
O1405       O  0.54832580  0.74659064  0.52614129    -0.39600
O1406       O  0.54893014  0.76569184  0.47233195    -0.39700
C1407       C  0.61649188  0.82078429  0.27193618    -0.12000
C1408       C  0.59783723  0.81669146  0.25141083     0.05100
C1409       C  0.57883028  0.79847927  0.26303712    -0.07200
C1410       C  0.57902806  0.78428158  0.29250647    -0.08000
C1411       C  0.59774817  0.78804898  0.31185419    -0.02500
C1412       C  0.61659822  0.80679145  0.30207731     0.04300
N1413       N  0.63612728  0.81165049  0.32153253     0.66800
H1414       H  0.63121204  0.83463441  0.26379127     0.15700
H1415       H  0.56438624  0.77032323  0.30053133     0.15400
N1416       N  0.55904470  0.79423755  0.24614004     0.74500
O1417       O  0.64666635  0.80388778  0.30668184    -0.39000
O1418       O  0.64179063  0.82199873  0.35600538    -0.38900
O1419       O  0.55024501  0.78029489  0.21778936    -0.39600
O1420       O  0.54811864  0.79981308  0.26748833    -0.39700
C1421       C  0.78632992  0.98303761  0.37967151    -0.12000
C1422       C  0.76503023  0.97448536  0.39021432     0.05100
C1423       C  0.75499966  0.98603104  0.38121052    -0.07200
C1424       C  0.76623360  0.00564926  0.36190312    -0.08000
C1425       C  0.78735787  0.01409146  0.35018373    -0.02500
C1426       C  0.79751791  0.00260635  0.35927987     0.04300
N1427       N  0.81914640  0.01063765  0.34901941     0.66800
H1428       H  0.79419822  0.97424849  0.38629976     0.15700
H1429       H  0.75815221  0.01425159  0.35547065     0.15400
N1430       N  0.73346983  0.97826850  0.39209429     0.74500
O1431       O  0.83283771  0.02008825  0.37763249    -0.39000
O1432       O  0.82381550  0.00354052  0.31664174    -0.38900
O1433       O  0.72911804  0.98535086  0.42493657    -0.39600
O1434       O  0.71955063  0.96892685  0.36383634    -0.39700
C1435       C  0.71459354  0.84145539  0.06438015    -0.12000
C1436       C  0.73343013  0.84538236  0.08379245     0.05100
C1437       C  0.75239662  0.86351479  0.07158270    -0.07200
C1438       C  0.75205410  0.87743567  0.04149707    -0.08000
C1439       C  0.73314814  0.87370184  0.02310500    -0.02500
C1440       C  0.71427509  0.85544718  0.03464441     0.04300
N1441       N  0.69445026  0.85158656  0.01864024     0.66800
H1442       H  0.69982896  0.82788582  0.07360268     0.15700
H1443       H  0.76667650  0.89122490  0.03248182     0.15400
N1444       N  0.77217977  0.86819237  0.08927210     0.74500
O1445       O  0.68582322  0.83902800  0.98787460    -0.39000
O1446       O  0.68707080  0.86282812  0.03118966    -0.38900
O1447       O  0.78356376  0.86291464  0.06874313    -0.39600
O1448       O  0.78044710  0.88211987  0.11781502    -0.39700
C1449       C  0.72119838  0.87413741  0.30260058    -0.12000
C1450       C  0.73695330  0.88179823  0.33389511     0.05100
C1451       C  0.75252319  0.87592376  0.33215702    -0.07200
C1452       C  0.75139935  0.86189696  0.30058948    -0.08000
C1453       C  0.73513463  0.85365331  0.27025867    -0.02500
C1454       C  0.72016133  0.86030914  0.27096713     0.04300
N1455       N  0.70372557  0.85330766  0.23989331     0.66800
H1456       H  0.70931322  0.87867254  0.30288457     0.15700
H1457       H  0.76308612  0.85710927  0.30048151     0.15400
N1458       N  0.76923686  0.88345205  0.36269037     0.74500
O1459       O  0.68548186  0.83898675  0.24995652    -0.39000
O1460       O  0.70605654  0.86488244  0.20810273    -0.38900
O1461       O  0.76775813  0.87196162  0.39405275    -0.39600
O1462       O  0.78708709  0.89840678  0.35228611    -0.39700
C1463       C  0.64650542  0.89588761  0.02742194    -0.12000
C1464       C  0.65080434  0.89620132  0.07156717     0.05100
C1465       C  0.67198798  0.90647571  0.08489951    -0.07200
C1466       C  0.68809790  0.91395740  0.05428749    -0.08000
C1467       C  0.68365270  0.91139226  0.01011142    -0.02500
C1468       C  0.66267679  0.90335272  0.99675095     0.04300
N1469       N  0.65752662  0.90236231  0.45205261     0.66800
H1470       H  0.63047445  0.88865065  0.01633851     0.15700
H1471       H  0.70407446  0.92057318  0.06540397     0.15400
N1472       N  0.67756087  0.90864847  0.12927788     0.74500
O1473       O  0.65089681  0.88532029  0.43214927    -0.39000
O1474       O  0.65434952  0.91629852  0.43644654    -0.38900
O1475       O  0.68393249  0.89712754  0.14522231    -0.39600
O1476       O  0.68136096  0.92517608  0.14866139    -0.39700
In1477     In  0.73140837  0.91437367  0.93594234     1.36900
C1478       C  0.73323399  0.88868430  0.99164931     0.77900
O1479       O  0.71976771  0.92387822  0.99236609    -0.60600
O1480       O  0.69764604  0.90627917  0.94344482    -0.51500
C1481       C  0.75305781  0.95327211  0.90817205     0.70600
O1482       O  0.76090786  0.94580315  0.93398810    -0.46300
C1483       C  0.73551106  0.89466764  0.86934665     0.75300
O1484       O  0.74767243  0.90776108  0.98948539    -0.58200
O1485       O  0.71910201  0.89577052  0.87606242    -0.48300
O1486       O  0.71855849  0.88321304  0.96484029    -0.54600
C1487       C  0.70078484  0.91447007  0.98044762     0.85400
O1488       O  0.73425056  0.94088230  0.89756056    -0.56500
O1489       O  0.75020652  0.90465740  0.89575701    -0.59800
In1490     In  0.60230440  0.85278461  0.64637829     1.36900
C1491       C  0.59938997  0.82457124  0.59058756     0.77900
O1492       O  0.61451321  0.87337138  0.58851144    -0.60600
O1493       O  0.63610088  0.87821130  0.63869564    -0.51500
C1494       C  0.58010275  0.86991550  0.67298508     0.70600
O1495       O  0.57205502  0.85364193  0.64983244    -0.46300
C1496       C  0.59940457  0.83045241  0.71545857     0.75300
O1497       O  0.58530560  0.82963439  0.59323829    -0.58200
O1498       O  0.61607815  0.84727088  0.70584300    -0.48300
O1499       O  0.61419679  0.83352973  0.61715362    -0.54600
C1500       C  0.63343147  0.88281098  0.60088350     0.85400
O1501       O  0.59937083  0.87745490  0.68110430    -0.56500
O1502       O  0.58415684  0.82581855  0.69066596    -0.59800
In1503     In  0.72910511  0.80816121  0.68656420     1.36900
C1504       C  0.73349200  0.83773363  0.74002548     0.77900
O1505       O  0.74755858  0.83573735  0.64390705    -0.60600
O1506       O  0.71550145  0.81437636  0.62834555    -0.51500
C1507       C  0.74997726  0.79038624  0.65659322     0.70600
O1508       O  0.75607517  0.80210870  0.68935552    -0.46300
C1509       C  0.69886366  0.77893006  0.73446984     0.75300
O1510       O  0.74774094  0.83297163  0.73548471    -0.58200
O1511       O  0.69544992  0.78326030  0.69701471    -0.48300
O1512       O  0.71748842  0.82742553  0.71685588    -0.54600
C1513       C  0.73223631  0.83129550  0.61928487     0.85400
O1514       O  0.73312837  0.78756385  0.63994515    -0.56500
O1515       O  0.71799928  0.78783658  0.74486748    -0.59800
In1516     In  0.59870572  0.74563209  0.89616571     1.36900
C1517       C  0.59753721  0.77245981  0.84243562     0.77900
O1518       O  0.58162895  0.75548709  0.94133383    -0.60600
O1519       O  0.61361650  0.76542526  0.95459899    -0.51500
C1520       C  0.57677248  0.70629475  0.92312388     0.70600
O1521       O  0.56890403  0.71365633  0.89702025    -0.46300
C1522       C  0.62879626  0.74527011  0.84970652     0.75300
O1523       O  0.58231117  0.75375073  0.84533278    -0.58200
O1524       O  0.63165428  0.75229946  0.88771902    -0.48300
O1525       O  0.61259193  0.77697919  0.86762522    -0.54600
C1526       C  0.59741668  0.76628690  0.96487542     0.85400
O1527       O  0.59538063  0.71910827  0.93437326    -0.56500
O1528       O  0.60995629  0.73668844  0.83707927    -0.59800
In1529     In  0.74509253  0.13876713  0.59903293     1.36900
C1530       C  0.77026713  0.16870042  0.65246905     0.77900
O1531       O  0.73717890  0.11810936  0.65740157    -0.60600
O1532       O  0.75425141  0.11426184  0.60678543    -0.51500
C1533       C  0.70629599  0.12222027  0.56866747     0.70600
O1534       O  0.71246688  0.13391804  0.60145933    -0.46300
C1535       C  0.76465025  0.16193524  0.53153370     0.75300
O1536       O  0.75078090  0.16252901  0.65016825    -0.58200
O1537       O  0.76420099  0.14485556  0.53921953    -0.48300
O1538       O  0.77646912  0.15977903  0.62673129    -0.54600
C1539       C  0.74721527  0.10941735  0.64471304     0.85400
O1540       O  0.71974730  0.11840238  0.55265613    -0.56500
O1541       O  0.75443288  0.16645368  0.55771920    -0.59800
In1542     In  0.81524288  0.07352638  0.79830794     1.36900
C1543       C  0.84315022  0.09833411  0.74154480     0.77900
O1544       O  0.79402535  0.06477035  0.74076148    -0.60600
O1545       O  0.79043891  0.08239394  0.79060526    -0.51500
C1546       C  0.79794943  0.03524485  0.83051439     0.70600
O1547       O  0.81319339  0.04189870  0.80441450    -0.46300
C1548       C  0.83879261  0.09413954  0.86496201     0.75300
O1549       O  0.83740168  0.07897775  0.74323840    -0.58200
O1550       O  0.82098174  0.09241810  0.85875331    -0.48300
O1551       O  0.83488784  0.10435567  0.76937447    -0.54600
C1552       C  0.78522094  0.07477245  0.75319531     0.85400
O1553       O  0.79170971  0.04796762  0.83840481    -0.56500
O1554       O  0.84387786  0.08469748  0.83807743    -0.59800
In1555     In  0.91948915  0.18017942  0.54713217     1.36900
C1556       C  0.89670932  0.15052338  0.49130227     0.77900
O1557       O  0.90971381  0.15355877  0.59151863    -0.60600
O1558       O  0.89898149  0.17483125  0.60537456    -0.51500
C1559       C  0.95820966  0.19844624  0.57882773     0.70600
O1560       O  0.95095757  0.18195734  0.55652227    -0.46300
C1561       C  0.91571304  0.20789592  0.49922107     0.75300
O1562       O  0.91659976  0.15912590  0.49156385    -0.58200
O1563       O  0.90894970  0.20362515  0.53743099    -0.48300
O1564       O  0.88917978  0.15678812  0.52016197    -0.54600
C1565       C  0.89860807  0.15800327  0.61521029     0.85400
O1566       O  0.94592663  0.20555832  0.58318759    -0.56500
O1567       O  0.92618094  0.19951431  0.48731346    -0.59800
In1568     In  0.84801808  0.24688323  0.85002220     1.36900
C1569       C  0.81909139  0.22172815  0.90494447     0.77900
O1570       O  0.81962951  0.23658955  0.80806779    -0.60600
O1571       O  0.84233552  0.22835355  0.78984784    -0.51500
C1572       C  0.86563331  0.28627708  0.82274692     0.70600
O1573       O  0.85090925  0.27889374  0.85010407    -0.46300
C1574       C  0.87801122  0.24379845  0.89218423     0.75300
O1575       O  0.82529241  0.24117453  0.90424675    -0.58200
O1576       O  0.87224871  0.23691935  0.85447920    -0.48300
O1577       O  0.82762165  0.21586898  0.87749397    -0.54600
C1578       C  0.82473028  0.22681007  0.78208457     0.85400
O1579       O  0.87132355  0.27358116  0.81073357    -0.56500
O1580       O  0.86969519  0.25390680  0.90665574    -0.59800
In1581     In  0.41348544  0.93342678  0.52106418     1.36900
C1582       C  0.43829713  0.93082252  0.57829102     0.77900
O1583       O  0.42321575  0.91387416  0.98488783    -0.60600
O1584       O  0.43265172  0.94438007  0.96056147    -0.51500
C1585       C  0.37439127  0.91470101  0.99049783     0.70600
O1586       O  0.38032839  0.90650058  0.51993960    -0.46300
C1587       C  0.41516965  0.96449974  0.56557782     0.75300
O1588       O  0.41935840  0.91619521  0.57345719    -0.58200
O1589       O  0.42286426  0.96691546  0.52812720    -0.48300
O1590       O  0.44421203  0.94630223  0.55342444    -0.54600
C1591       C  0.43338766  0.92766743  0.95685129     0.85400
O1592       O  0.38855815  0.93234827  0.97713642    -0.56500
O1593       O  0.40490754  0.94573120  0.57837086    -0.59800
In1594     In  0.47973760  0.06697005  0.72282354     1.36900
C1595       C  0.51109092  0.07421706  0.67031529     0.77900
O1596       O  0.50355209  0.08290329  0.77393422    -0.60600
O1597       O  0.48355119  0.05001089  0.77956513    -0.51500
C1598       C  0.45975147  0.08654158  0.74856351     0.70600
O1599       O  0.47733501  0.09597059  0.72961386    -0.46300
C1600       C  0.45194811  0.03645833  0.67400437     0.75300
O1601       O  0.50369348  0.08645658  0.67128109    -0.58200
O1602       O  0.45535280  0.03372080  0.71264059    -0.48300
O1603       O  0.50281085  0.05934606  0.69683039    -0.54600
C1604       C  0.49917168  0.06640523  0.79424361     0.85400
O1605       O  0.45230473  0.06712485  0.75317279    -0.56500
O1606       O  0.46188629  0.05523964  0.66135729    -0.59800
In1607     In  0.51693958  0.92979741  0.77186346     1.36900
C1608       C  0.48649103  0.92390085  0.82552896     0.77900
O1609       O  0.53755053  0.94325382  0.83035540    -0.60600
O1610       O  0.54117516  0.96351039  0.77851827    -0.51500
C1611       C  0.53716074  0.91089913  0.74299399     0.70600
O1612       O  0.52154353  0.90187213  0.76814602    -0.46300
C1613       C  0.49460161  0.92757329  0.70338000     0.75300
O1614       O  0.49410743  0.91181570  0.82524599    -0.58200
O1615       O  0.51088256  0.94422000  0.71514670    -0.48300
O1616       O  0.49439373  0.93847375  0.79829811    -0.54600
C1617       C  0.54652724  0.96180082  0.81623872     0.85400
O1618       O  0.54228486  0.92944081  0.73340197    -0.56500
O1619       O  0.49063306  0.91153738  0.72508160    -0.59800
In1620     In  0.58277978  0.06338049  0.97450335     1.36900
C1621       C  0.55709889  0.06729409  0.92117652     0.77900
O1622       O  0.59132671  0.05223398  0.91550808    -0.60600
O1623       O  0.57431161  0.02989770  0.96455967    -0.51500
C1624       C  0.62165763  0.08406444  0.50331322     0.70600
O1625       O  0.61600542  0.09010376  0.97145952    -0.46300
C1626       C  0.56458986  0.06899157  0.54171130     0.75300
O1627       O  0.57617973  0.08165764  0.92504808    -0.58200
O1628       O  0.56419124  0.05187033  0.53467734    -0.48300
O1629       O  0.55158120  0.05164629  0.94536510    -0.54600
C1630       C  0.58163401  0.03323568  0.92668074     0.85400
O1631       O  0.60745479  0.06732011  0.51996957    -0.56500
O1632       O  0.57467237  0.08324927  0.51436701    -0.59800
In1633     In  0.80742449  0.72550507  0.55641558     1.36900
C1634       C  0.83467749  0.73154068  0.49464959     0.77900
O1635       O  0.83736948  0.74474262  0.59207714    -0.60600
O1636       O  0.81587553  0.71423033  0.61555269    -0.51500
C1637       C  0.79002584  0.74648225  0.58865174     0.70600
O1638       O  0.80070164  0.75196763  0.55435757    -0.46300
C1639       C  0.77702958  0.69082623  0.52021400     0.75300
O1640       O  0.82811913  0.74431774  0.49985300    -0.58200
O1641       O  0.78570579  0.69058141  0.55500528    -0.48300
O1642       O  0.82738528  0.71660041  0.52106575    -0.54600
C1643       C  0.83347206  0.73078656  0.61982383     0.85400
O1644       O  0.78791950  0.73003251  0.60552156    -0.56500
O1645       O  0.78237349  0.70896719  0.50684141    -0.59800
In1646     In  0.74750701  0.59392406  0.85362295     1.36900
C1647       C  0.77548711  0.59245965  0.90469369     0.77900
O1648       O  0.75664231  0.57664980  0.80818056    -0.60600
O1649       O  0.76685454  0.60872838  0.79522432    -0.51500
C1650       C  0.70854471  0.57308189  0.82389346     0.70600
O1651       O  0.71546539  0.56446830  0.84923332    -0.46300
C1652       C  0.74548306  0.62212161  0.90288188     0.75300
O1653       O  0.75659804  0.57738314  0.90301694    -0.58200
O1654       O  0.75295143  0.62649020  0.86514315    -0.48300
O1655       O  0.77949715  0.60766610  0.88025029    -0.54600
C1656       C  0.76729654  0.59239333  0.78446187     0.85400
O1657       O  0.72157158  0.59190242  0.81473252    -0.56500
O1658       O  0.73776141  0.60311525  0.91349097    -0.59800
In1659     In  0.91805584  0.73470691  0.80569812     1.36900
C1660       C  0.89401446  0.73785058  0.74641411     0.77900
O1661       O  0.92844391  0.72182704  0.75166939    -0.60600
O1662       O  0.91153087  0.70176985  0.80352747    -0.51500
C1663       C  0.95586555  0.75827197  0.83989773     0.70600
O1664       O  0.95078361  0.76255396  0.80409686    -0.46300
C1665       C  0.89355361  0.73398137  0.86830745     0.75300
O1666       O  0.91274738  0.75261559  0.75212977    -0.58200
O1667       O  0.89585732  0.71850375  0.85987012    -0.48300
O1668       O  0.88833080  0.72235475  0.77088963    -0.54600
C1669       C  0.91909656  0.70342241  0.76634940     0.85400
O1670       O  0.94153764  0.74217222  0.85806602    -0.56500
O1671       O  0.90462454  0.75008572  0.84566662    -0.59800
In1672     In  0.85622003  0.60211676  0.60349058     1.36900
C1673       C  0.82507858  0.59702461  0.65366142     0.77900
O1674       O  0.87243452  0.61321621  0.66666365    -0.60600
O1675       O  0.88111992  0.63542646  0.61583396    -0.51500
C1676       C  0.87483581  0.58048000  0.58112730     0.70600
O1677       O  0.85714684  0.57194559  0.59966150    -0.46300
C1678       C  0.83630228  0.59981479  0.53095929     0.75300
O1679       O  0.83182026  0.58422097  0.65342775    -0.58200
O1680       O  0.85252366  0.61667398  0.54234071    -0.48300
O1681       O  0.83390398  0.61184073  0.62705893    -0.54600
C1682       C  0.88294880  0.63215729  0.65519240     0.85400
O1683       O  0.88313463  0.60000418  0.57585462    -0.56500
O1684       O  0.83150611  0.58447856  0.55550669    -0.59800
In1685     In  0.41440941  0.47762699  0.76215103     1.36900
C1686       C  0.43948723  0.50928671  0.81285570     0.77900
O1687       O  0.40765727  0.45882703  0.82193371    -0.60600
O1688       O  0.42493335  0.45419458  0.77263957    -0.51500
C1689       C  0.37464690  0.45661438  0.73665211     0.70600
O1690       O  0.38178999  0.47266563  0.76041678    -0.46300
C1691       C  0.43272158  0.49885231  0.69137598     0.75300
O1692       O  0.41986818  0.50257681  0.81164755    -0.58200
O1693       O  0.43369286  0.48291313  0.70294178    -0.48300
O1694       O  0.44549870  0.49974830  0.78836554    -0.54600
C1695       C  0.41762460  0.44984282  0.81043934     0.85400
O1696       O  0.38780162  0.45109660  0.72702913    -0.56500
O1697       O  0.42126853  0.50294453  0.71480120    -0.59800
In1698     In  0.47678774  0.41336751  0.98485959     1.36900
C1699       C  0.50809161  0.43901467  0.93270739     0.77900
O1700       O  0.45807151  0.40567753  0.92517559    -0.60600
O1701       O  0.45260332  0.42292353  0.97329056    -0.51500
C1702       C  0.45569115  0.37360606  0.51016802     0.70600
O1703       O  0.47121528  0.38050965  0.98484655    -0.46300
C1704       C  0.49820371  0.43138348  0.55536468     0.75300
O1705       O  0.50278798  0.41984979  0.93652496    -0.58200
O1706       O  0.48222198  0.43256068  0.54466222    -0.48300
O1707       O  0.49768472  0.44449818  0.95605482    -0.54600
C1708       C  0.44874304  0.41544617  0.93559802     0.85400
O1709       O  0.45089392  0.38704295  0.52173890    -0.56500
O1710       O  0.50217334  0.42011484  0.53116020    -0.59800
In1711     In  0.51925044  0.58152512  0.51001310     1.36900
C1712       C  0.48876884  0.55409070  0.56014473     0.77900
O1713       O  0.49335219  0.57466056  0.96487500    -0.60600
O1714       O  0.51554738  0.56563628  0.94660540    -0.51500
C1715       C  0.53796046  0.62182792  0.99006003     0.70600
O1716       O  0.52090348  0.61271659  0.51034213    -0.46300
C1717       C  0.54636602  0.57860349  0.56031427     0.75300
O1718       O  0.49432418  0.57339031  0.55971935    -0.58200
O1719       O  0.54320667  0.57188293  0.52196104    -0.48300
O1720       O  0.49845600  0.54901065  0.53381802    -0.54600
C1721       C  0.49862822  0.56545002  0.93783374     0.85400
O1722       O  0.54577467  0.61046643  0.98134814    -0.56500
O1723       O  0.53723109  0.58857595  0.57058488    -0.59800
In1724     In  0.58393290  0.51706133  0.73187851     1.36900
C1725       C  0.55800253  0.48581599  0.68173000     0.77900
O1726       O  0.57570918  0.49195419  0.78073191    -0.60600
O1727       O  0.56518181  0.51348632  0.79214819    -0.51500
C1728       C  0.62419646  0.53578596  0.75469542     0.70600
O1729       O  0.61531229  0.51875567  0.73400486    -0.46300
C1730       C  0.58039101  0.54413214  0.68091310     0.75300
O1731       O  0.57756817  0.49226464  0.68176304    -0.58200
O1732       O  0.57440064  0.54116979  0.71974703    -0.48300
O1733       O  0.55235366  0.49497255  0.70805534    -0.54600
C1734       C  0.56497214  0.49698795  0.80416704     0.85400
O1735       O  0.61261153  0.54346644  0.76236612    -0.56500
O1736       O  0.58982918  0.53458664  0.66973161    -0.59800
In1737     In  0.14539773  0.74542234  0.64611928     1.36900
C1738       C  0.17506446  0.77330407  0.59539266     0.77900
O1739       O  0.12681471  0.73854401  0.58493745    -0.60600
O1740       O  0.12019614  0.75345434  0.63605414    -0.51500
C1741       C  0.12906180  0.70564400  0.67110867     0.70600
O1742       O  0.14558531  0.71462725  0.64847087    -0.46300
C1743       C  0.16578170  0.76342268  0.71769327     0.75300
O1744       O  0.17025612  0.75419257  0.59564993    -0.58200
O1745       O  0.14844111  0.76230038  0.70881428    -0.48300
O1746       O  0.16521612  0.77794537  0.62217622    -0.54600
C1747       C  0.11708477  0.74769097  0.59708583     0.85400
O1748       O  0.12079174  0.71672671  0.67847635    -0.56500
O1749       O  0.17154817  0.75443849  0.69112626    -0.59800
In1750     In  0.07916018  0.81209766  0.93423987     1.36900
C1751       C  0.10569874  0.84236734  0.98411774     0.77900
O1752       O  0.07200785  0.79263447  0.99378304    -0.60600
O1753       O  0.08860319  0.78767516  0.94368031    -0.51500
C1754       C  0.04008796  0.79601967  0.90654982     0.70600
O1755       O  0.04669955  0.80748559  0.93962169    -0.46300
C1756       C  0.09749054  0.83522759  0.86628010     0.75300
O1757       O  0.08626005  0.83654185  0.98334479    -0.58200
O1758       O  0.09629692  0.81766948  0.87257052    -0.48300
O1759       O  0.11127675  0.83277986  0.95867700    -0.54600
C1760       C  0.08213939  0.78387097  0.98218028     0.85400
O1761       O  0.05312941  0.79190342  0.88941723    -0.56500
O1762       O  0.08851934  0.84039710  0.89423008    -0.59800
In1763     In  0.25055807  0.84975770  0.89453371     1.36900
C1764       C  0.22471280  0.81881469  0.84426059     0.77900
O1765       O  0.24327811  0.82511663  0.94363939    -0.60600
O1766       O  0.23094399  0.84542389  0.95293090    -0.51500
C1767       C  0.28984684  0.86992403  0.92208332     0.70600
O1768       O  0.28228893  0.85264966  0.90232814    -0.46300
C1769       C  0.24789933  0.87649138  0.84203766     0.75300
O1770       O  0.24430797  0.82526113  0.84456860    -0.58200
O1771       O  0.24181229  0.87399190  0.88081695    -0.48300
O1772       O  0.21887618  0.82783266  0.87060953    -0.54600
C1773       C  0.23187789  0.82966412  0.96613367     0.85400
O1774       O  0.27757743  0.87708156  0.92608145    -0.56500
O1775       O  0.25703011  0.86654959  0.83135467    -0.59800
In1776     In  0.18381201  0.91478842  0.68306036     1.36900
C1777       C  0.15331040  0.88934929  0.73488112     0.77900
O1778       O  0.15671484  0.90744419  0.64054836    -0.60600
O1779       O  0.17797365  0.89717329  0.62201510    -0.51500
C1780       C  0.20425376  0.95442217  0.65851140     0.70600
O1781       O  0.18860747  0.94720998  0.68363100    -0.46300
C1782       C  0.21205878  0.91133147  0.72870172     0.75300
O1783       O  0.15991070  0.90888048  0.73366151    -0.58200
O1784       O  0.20702092  0.90409183  0.69097091    -0.48300
O1785       O  0.16244602  0.88321502  0.70948823    -0.54600
C1786       C  0.16110868  0.89723296  0.61427062     0.85400
O1787       O  0.20955806  0.94138204  0.64686759    -0.56500
O1788       O  0.20364612  0.92164017  0.74145843    -0.59800
In1789     In  0.14362375  0.39505562  0.89767673     1.36900
C1790       C  0.17289873  0.39844345  0.84329244     0.77900
O1791       O  0.17202045  0.41257679  0.93793512    -0.60600
O1792       O  0.14929300  0.38149583  0.95700790    -0.51500
C1793       C  0.12693699  0.41719707  0.92757493     0.70600
O1794       O  0.13743229  0.42200651  0.89300737    -0.46300
C1795       C  0.11302019  0.36387048  0.85381144     0.75300
O1796       O  0.16862059  0.41300178  0.84779148    -0.58200
O1797       O  0.11816447  0.36159662  0.89136925    -0.48300
O1798       O  0.16225545  0.38267532  0.86680557    -0.54600
C1799       C  0.16700955  0.39765019  0.96395027     0.85400
O1800       O  0.12507446  0.40123641  0.94633596    -0.56500
O1801       O  0.12207564  0.38258368  0.84083683    -0.59800
In1802     In  0.07836109  0.26381880  0.69177580     1.36900
C1803       C  0.10327668  0.25824065  0.74474911     0.77900
O1804       O  0.08620955  0.24607213  0.64559776    -0.60600
O1805       O  0.09792201  0.27835262  0.63231719    -0.51500
C1806       C  0.03956774  0.24366260  0.66107196     0.70600
O1807       O  0.04647976  0.23504864  0.68629714    -0.46300
C1808       C  0.07943049  0.29334147  0.74133353     0.75300
O1809       O  0.08368058  0.24523292  0.74299830    -0.58200
O1810       O  0.08712859  0.29700320  0.70377457    -0.48300
O1811       O  0.10959239  0.27345315  0.71908838    -0.54600
C1812       C  0.09703544  0.26142896  0.62111795     0.85400
O1813       O  0.05223814  0.26277412  0.65366547    -0.56500
O1814       O  0.06971625  0.27424382  0.75190792    -0.59800
In1815     In  0.24947462  0.39451538  0.64709887     1.36900
C1816       C  0.22585490  0.39905610  0.58877904     0.77900
O1817       O  0.25696004  0.37933582  0.59389556    -0.60600
O1818       O  0.23772090  0.35965484  0.64436641    -0.51500
C1819       C  0.28930969  0.41564533  0.67258081     0.70600
O1820       O  0.28137734  0.42399458  0.64950251    -0.46300
C1821       C  0.22974983  0.39884771  0.71411971     0.75300
O1822       O  0.24560262  0.41129950  0.58957033    -0.58200
O1823       O  0.23068813  0.38243762  0.70742061    -0.48300
O1824       O  0.21899019  0.38506671  0.61729543    -0.54600
C1825       C  0.24587779  0.36087125  0.60791129     0.85400
O1826       O  0.27690422  0.39672315  0.68194100    -0.56500
O1827       O  0.24009076  0.41347171  0.68783036    -0.59800
In1828     In  0.18229896  0.26187937  0.94264719     1.36900
C1829       C  0.15159695  0.25729576  0.99354381     0.77900
O1830       O  0.20085133  0.27327309  0.00286702    -0.60600
O1831       O  0.20755144  0.29535327  0.95259588    -0.51500
C1832       C  0.20207594  0.24194750  0.92006328     0.70600
O1833       O  0.18594145  0.23357268  0.94387252    -0.46300
C1834       C  0.16013045  0.25865941  0.87335126     0.75300
O1835       O  0.15679282  0.24332022  0.99153984    -0.58200
O1836       O  0.17710353  0.27534970  0.88200036    -0.48300
O1837       O  0.16217354  0.27298698  0.96970510    -0.54600
C1838       C  0.21114313  0.29215443  0.99084453     0.85400
O1839       O  0.20794995  0.26042106  0.90826583    -0.56500
O1840       O  0.15585189  0.24343990  0.89789489    -0.59800
In1841     In  0.26353114  0.18189340  0.81923464     1.36900
C1842       C  0.26122315  0.15486134  0.76160008     0.77900
O1843       O  0.27549364  0.20393975  0.76435051    -0.60600
O1844       O  0.29766203  0.20671474  0.81166926    -0.51500
C1845       C  0.24244459  0.19894421  0.85054202     0.70600
O1846       O  0.23394079  0.18362430  0.82478578    -0.46300
C1847       C  0.26022217  0.15838423  0.88569946     0.75300
O1848       O  0.24752444  0.16050320  0.76301933    -0.58200
O1849       O  0.27653052  0.17583300  0.87785016    -0.48300
O1850       O  0.27531958  0.16286688  0.78991953    -0.54600
C1851       C  0.29458261  0.21229814  0.77518984     0.85400
O1852       O  0.26150090  0.20541558  0.85893390    -0.56500
O1853       O  0.24515312  0.15338612  0.86007706    -0.59800
In1854     In  0.39255298  0.24888383  0.60385684     1.36900
C1855       C  0.39764534  0.22445020  0.65959926     0.77900
O1856       O  0.38028750  0.25671663  0.66201807    -0.60600
O1857       O  0.35841850  0.23832430  0.61341848    -0.51500
C1858       C  0.41382728  0.28841161  0.57578653     0.70600
O1859       O  0.42256043  0.28035238  0.59729304    -0.46300
C1860       C  0.39476597  0.22934582  0.53503287     0.75300
O1861       O  0.41084818  0.24390356  0.65680601    -0.58200
O1862       O  0.37813289  0.22964915  0.54392078    -0.48300
O1863       O  0.38269067  0.21793659  0.63324231    -0.54600
C1864       C  0.36123571  0.24594436  0.65089108     0.85400
O1865       O  0.39437086  0.27647415  0.57002284    -0.56500
O1866       O  0.41001326  0.24002236  0.55977478    -0.59800
In1867     In  0.26772331  0.07907549  0.56924244     1.36900
C1868       C  0.26351837  0.10414812  0.01504995     0.77900
O1869       O  0.25037869  0.08900096  0.61180213    -0.60600
O1870       O  0.28163438  0.09778781  0.62997370    -0.51500
C1871       C  0.24565571  0.03953385  0.59519694     0.70600
O1872       O  0.23755321  0.04769283  0.57205999    -0.46300
C1873       C  0.29860975  0.08159958  0.52055270     0.75300
O1874       O  0.24979171  0.08465866  0.51779470    -0.58200
O1875       O  0.30152634  0.08824757  0.55889964    -0.48300
O1876       O  0.27853877  0.11021075  0.54101862    -0.54600
C1877       C  0.26541065  0.09910222  0.63738243     0.85400
O1878       O  0.26479643  0.05154965  0.60405507    -0.56500
O1879       O  0.27957245  0.07186431  0.50913451    -0.59800
In1880     In  0.39891739  0.14671899  0.85544700     1.36900
C1881       C  0.40096954  0.17476806  0.91023715     0.77900
O1882       O  0.41703476  0.17432455  0.81182518    -0.60600
O1883       O  0.38523227  0.15213736  0.79660148    -0.51500
C1884       C  0.41948315  0.12866209  0.82526740     0.70600
O1885       O  0.42807504  0.14404419  0.85092291    -0.46300
C1886       C  0.36851419  0.11725660  0.90284443     0.75300
O1887       O  0.41513543  0.16972347  0.90922242    -0.58200
O1888       O  0.36522940  0.12183437  0.86549274    -0.48300
O1889       O  0.38667278  0.16583885  0.88257022    -0.54600
C1890       C  0.40157951  0.16931832  0.78722415     0.85400
O1891       O  0.40049883  0.12252397  0.81668065    -0.56500
O1892       O  0.38765760  0.12623018  0.91348625    -0.59800
In1893     In  0.92945035  0.41096472  0.73411842     1.36900
C1894       C  0.92943873  0.43890678  0.68017636     0.77900
O1895       O  0.91245293  0.41905359  0.78353316    -0.60600
O1896       O  0.94471267  0.42887557  0.79352346    -0.51500
C1897       C  0.90801277  0.37086697  0.75573910     0.70600
O1898       O  0.89940139  0.37968888  0.73626887    -0.46300
C1899       C  0.95831601  0.41030936  0.68579299     0.75300
O1900       O  0.91360803  0.42061697  0.68429364    -0.58200
O1901       O  0.96207122  0.41713869  0.72401890    -0.48300
O1902       O  0.94447988  0.44285127  0.70504858    -0.54600
C1903       C  0.92861603  0.42928345  0.80642610     0.85400
O1904       O  0.92731583  0.38254239  0.76344364    -0.56500
O1905       O  0.93931652  0.40217971  0.67429934    -0.59800
In1906     In  0.05874126  0.47248870  0.52299236     1.36900
C1907       C  0.06599531  0.50220838  0.58044900     0.77900
O1908       O  0.07842168  0.50050773  0.98331128    -0.60600
O1909       O  0.04696650  0.47980370  0.96321372    -0.51500
C1910       C  0.08019554  0.45497330  0.99306333     0.70600
O1911       O  0.08540378  0.46604532  0.52618773    -0.46300
C1912       C  0.02552457  0.44263273  0.56421842     0.75300
O1913       O  0.07856123  0.49531567  0.57601292    -0.58200
O1914       O  0.02378163  0.44989004  0.52865497    -0.48300
O1915       O  0.05032708  0.49379614  0.55574075    -0.54600
C1916       C  0.06412777  0.49660897  0.95636122     0.85400
O1917       O  0.06340317  0.45218914  0.97624587    -0.56500
O1918       O  0.04423667  0.44922460  0.57578956    -0.59800
In1919     In  0.93738786  0.51995845  0.98081555     1.36900
C1920       C  0.93382974  0.49025601  0.92853199     0.77900
O1921       O  0.94881495  0.53930985  0.92046657    -0.60600
O1922       O  0.97056229  0.54552881  0.97124396    -0.51500
C1923       C  0.91792766  0.53942931  0.51082520     0.70600
O1924       O  0.90974624  0.52525528  0.98277536    -0.46300
C1925       C  0.93348426  0.49679555  0.54913454     0.75300
O1926       O  0.91903016  0.49426627  0.93303236    -0.58200
O1927       O  0.95071028  0.51283244  0.53852488    -0.48300
O1928       O  0.94998089  0.50139354  0.95081604    -0.54600
C1929       C  0.96771570  0.54942373  0.93294960     0.85400
O1930       O  0.93616084  0.54385393  0.52218354    -0.56500
O1931       O  0.91811584  0.49324125  0.52548869    -0.59800
In1932     In  0.06922373  0.58320206  0.77533719     1.36900
C1933       C  0.07280785  0.55772566  0.82992552     0.77900
O1934       O  0.05822629  0.59190329  0.83530319    -0.60600
O1935       O  0.03625798  0.57601286  0.78518106    -0.51500
C1936       C  0.08899607  0.62213481  0.74511268     0.70600
O1937       O  0.09814793  0.61537827  0.76934093    -0.46300
C1938       C  0.06970761  0.56185269  0.70677191     0.75300
O1939       O  0.08727988  0.57678511  0.82680861    -0.58200
O1940       O  0.05355145  0.56260566  0.71786955    -0.48300
O1941       O  0.05745560  0.55247811  0.80504462    -0.54600
C1942       C  0.03934191  0.58336158  0.82292365     0.85400
O1943       O  0.07006094  0.60899535  0.73712789    -0.56500
O1944       O  0.08574921  0.57295707  0.72949189    -0.59800
C1945       C  0.00580389  0.57441700  0.92209792    -0.12000
C1946       C  0.98558013  0.56321396  0.90426727     0.05100
C1947       C  0.98356934  0.56311266  0.85907145    -0.07200
C1948       C  0.00153713  0.57140207  0.83311127    -0.08000
C1949       C  0.02170349  0.58033034  0.85106936    -0.02500
C1950       C  0.02378682  0.58321982  0.89605327     0.04300
N1951       N  0.04389739  0.59420473  0.91625978     0.66800
H1952       H  0.00777471  0.57548757  0.95655765     0.15700
H1953       H  0.99955419  0.56980394  0.79867878     0.15400
N1954       N  0.96352338  0.55373368  0.83856307     0.74500
O1955       O  0.05107041  0.61308422  0.92679434    -0.39000
O1956       O  0.05134192  0.58392124  0.93372773    -0.38900
O1957       O  0.95667786  0.56540373  0.82577828    -0.39600
O1958       O  0.95608402  0.53571770  0.82245305    -0.39700
C1959       C  0.08463740  0.53185672  0.92352845    -0.12000
C1960       C  0.06736631  0.51136306  0.92110562     0.05100
C1961       C  0.05327319  0.50603905  0.88653997    -0.07200
C1962       C  0.05614144  0.52130549  0.85653065    -0.08000
C1963       C  0.07267056  0.54215720  0.86027689    -0.02500
C1964       C  0.08732127  0.54727050  0.89382194     0.04300
N1965       N  0.10435525  0.56811454  0.89987520     0.66800
H1966       H  0.09568633  0.53627307  0.94973015     0.15700
H1967       H  0.04487795  0.51679507  0.83070653     0.15400
N1968       N  0.03577954  0.48534977  0.88143284     0.74500
O1969       O  0.10174061  0.58028441  0.92414411    -0.39000
O1970       O  0.12280055  0.57212527  0.89168372    -0.38900
O1971       O  0.01782073  0.48151244  0.89347171    -0.39600
O1972       O  0.03721673  0.47303933  0.85543750    -0.39700
C1973       C  0.08560806  0.54281007  0.67111245    -0.12000
C1974       C  0.06974045  0.54812933  0.67186197     0.05100
C1975       C  0.05365707  0.53915574  0.64083487    -0.07200
C1976       C  0.05317693  0.52459416  0.61157296    -0.08000
C1977       C  0.06854461  0.51862228  0.61163052    -0.02500
C1978       C  0.08524478  0.52831452  0.64139113     0.04300
N1979       N  0.10191794  0.52373117  0.64217064     0.66800
H1980       H  0.09826559  0.54963268  0.69448740     0.15700
H1981       H  0.04041251  0.51785053  0.58844129     0.15400
N1982       N  0.03795111  0.54501546  0.63754701     0.74500
O1983       O  0.11908646  0.53620800  0.62407190    -0.39000
O1984       O  0.10155998  0.51108676  0.66987901    -0.38900
O1985       O  0.04064558  0.55912099  0.61114470    -0.39600
O1986       O  0.01966628  0.53260417  0.65119453    -0.39700
C1987       C  0.94907318  0.46008066  0.85233815    -0.12000
C1988       C  0.92950572  0.44264740  0.84262469     0.05100
C1989       C  0.91139667  0.44025472  0.86367081    -0.07200
C1990       C  0.91311339  0.45585406  0.89183238    -0.08000
C1991       C  0.93260159  0.47381254  0.89966505    -0.02500
C1992       C  0.95078707  0.47566266  0.88011517     0.04300
N1993       N  0.97090028  0.49408387  0.88494628     0.66800
H1994       H  0.96314714  0.46237261  0.83621402     0.15700
H1995       H  0.89909865  0.45393118  0.90757285     0.15400
N1996       N  0.89124010  0.42209160  0.85732913     0.74500
O1997       O  0.98401698  0.49381795  0.91060663    -0.39000
O1998       O  0.97730570  0.50799603  0.85617697    -0.38900
O1999       O  0.88458065  0.40743304  0.88448170    -0.39600
O2000       O  0.87832144  0.42315784  0.83236000    -0.39700
C2001       C  0.91197528  0.45214941  0.63104452    -0.12000
C2002       C  0.93060152  0.45444324  0.64829681     0.05100
C2003       C  0.95003292  0.47133369  0.63394992    -0.07200
C2004       C  0.95041939  0.48525345  0.60294224    -0.08000
C2005       C  0.93182579  0.48274749  0.58501763    -0.02500
C2006       C  0.91238447  0.46604309  0.59977661     0.04300
N2007       N  0.89283157  0.46277863  0.58348533     0.66800
H2008       H  0.89697302  0.43945319  0.64173021     0.15700
H2009       H  0.96548418  0.49769320  0.59183418     0.15400
N2010       N  0.96965873  0.47401898  0.64842643     0.74500
O2011       O  0.88307537  0.44858974  0.55601523    -0.39000
O2012       O  0.88304134  0.46988208  0.60420235    -0.38900
O2013       O  0.97896294  0.46703093  0.62569631    -0.39600
O2014       O  0.97999793  0.48784797  0.67619901    -0.39700
C2015       C  0.01190626  0.42870279  0.63668878    -0.12000
C2016       C  0.00754001  0.42949860  0.59298601     0.05100
C2017       C  0.98636456  0.42045152  0.57999678    -0.07200
C2018       C  0.97035456  0.41221903  0.61087027    -0.08000
C2019       C  0.97500735  0.41364001  0.65493052    -0.02500
C2020       C  0.99599631  0.42132577  0.66766483     0.04300
N2021       N  0.00176618  0.42331140  0.71194188     0.66800
H2022       H  0.02795965  0.43543799  0.64751854     0.15700
H2023       H  0.95436744  0.40631837  0.60032311     0.15400
N2024       N  0.98075732  0.42068226  0.53617840     0.74500
O2025       O  0.00542796  0.40993112  0.72875490    -0.39000
O2026       O  0.00806630  0.44062204  0.73057575    -0.38900
O2027       O  0.97264482  0.40384885  0.51504024    -0.39600
O2028       O  0.97829201  0.43549653  0.52322951    -0.39700
C2029       C  0.33694125  0.09680353  0.50613856    -0.12000
C2030       C  0.31632888  0.08657887  0.99028693     0.05100
C2031       C  0.31325428  0.08374058  0.94532789    -0.07200
C2032       C  0.33056326  0.09260854  0.91743117    -0.08000
C2033       C  0.35115009  0.10412204  0.93310681    -0.02500
C2034       C  0.35431780  0.10536637  0.97804938     0.04300
N2035       N  0.37496175  0.11654750  0.99591692     0.66800
H2036       H  0.33977037  0.09902546  0.54038254     0.15700
H2037       H  0.32777077  0.09126916  0.88312796     0.15400
N2038       N  0.29269995  0.07310718  0.92697595     0.74500
O2039       O  0.38302731  0.13581929  0.50437272    -0.39000
O2040       O  0.38592762  0.10785281  0.99844313    -0.38900
O2041       O  0.28494290  0.08368845  0.91238239    -0.39600
O2042       O  0.28497935  0.05427487  0.91553863    -0.39700
C2043       C  0.41853365  0.21500189  0.70890504    -0.12000
C2044       C  0.39905047  0.21015893  0.69126284     0.05100
C2045       C  0.38092256  0.19137680  0.70394975    -0.07200
C2046       C  0.38248791  0.17807626  0.73363577    -0.08000
C2047       C  0.40178661  0.18299175  0.75202872    -0.02500
C2048       C  0.42007971  0.20158362  0.73890878     0.04300
N2049       N  0.44034406  0.20702047  0.75516568     0.66800
H2050       H  0.43262695  0.22916417  0.69920302     0.15700
H2051       H  0.36821652  0.16411981  0.74347214     0.15400
N2052       N  0.36046199  0.18606504  0.68918500     0.74500
O2053       O  0.45187207  0.20221662  0.73379388    -0.39000
O2054       O  0.44841779  0.22050249  0.78458387    -0.38900
O2055       O  0.35189798  0.17251539  0.66003135    -0.39600
O2056       O  0.34922190  0.19061791  0.71221690    -0.39700
C2057       C  0.41262156  0.21166583  0.50470659    -0.12000
C2058       C  0.39649388  0.21646334  0.50087469     0.05100
C2059       C  0.38211820  0.20772188  0.96630891    -0.07200
C2060       C  0.38428757  0.19460770  0.93694943    -0.08000
C2061       C  0.40029822  0.18957993  0.94124833    -0.02500
C2062       C  0.41452300  0.19825005  0.97564312     0.04300
N2063       N  0.43075340  0.19339827  0.48283729     0.66800
H2064       H  0.42361235  0.21783147  0.53135959     0.15700
H2065       H  0.37314348  0.18818930  0.91061941     0.15400
N2066       N  0.36571719  0.21244209  0.95994076     0.74500
O2067       O  0.44926212  0.20630962  0.47115738    -0.39000
O2068       O  0.42783201  0.17950987  0.00988350    -0.38900
O2069       O  0.36846503  0.22643514  0.93318287    -0.39600
O2070       O  0.34725787  0.19927212  0.97147488    -0.39700
C2071       C  0.27453254  0.13171210  0.73787518    -0.12000
C2072       C  0.26137810  0.14005798  0.72997434     0.05100
C2073       C  0.24960353  0.13463995  0.69172984    -0.07200
C2074       C  0.25081560  0.12076005  0.66302586    -0.08000
C2075       C  0.26410878  0.11257654  0.67075084    -0.02500
C2076       C  0.27621485  0.11832398  0.70855950     0.04300
N2077       N  0.29007811  0.11061240  0.71811134     0.66800
H2078       H  0.28385742  0.13575835  0.76704584     0.15700
H2079       H  0.24181542  0.11699212  0.63344394     0.15400
N2080       N  0.23749096  0.14408116  0.68002326     0.74500
O2081       O  0.30933070  0.12182780  0.70914655    -0.39000
O2082       O  0.28446054  0.09608172  0.74529423    -0.38900
O2083       O  0.24542781  0.15965626  0.65504628    -0.39600
O2084       O  0.21784806  0.13398801  0.68542185    -0.39700
C2085       C  0.24350672  0.11188534  0.96095830    -0.12000
C2086       C  0.26219130  0.11850602  0.98387851     0.05100
C2087       C  0.27956892  0.13862021  0.97560275    -0.07200
C2088       C  0.27799838  0.15144440  0.94487839    -0.08000
C2089       C  0.25960322  0.14469648  0.92098504    -0.02500
C2090       C  0.24205096  0.12468556  0.92955473     0.04300
N2091       N  0.22282960  0.11679940  0.90625321     0.66800
H2092       H  0.23001208  0.09652769  0.96688728     0.15700
H2093       H  0.29172258  0.16661789  0.93872737     0.15400
N2094       N  0.29914880  0.14599868  0.49680907     0.74500
O2095       O  0.21947317  0.10474600  0.87483228    -0.39000
O2096       O  0.20749778  0.11707216  0.92369501    -0.38900
O2097       O  0.31378263  0.14551112  0.47670349    -0.39600
O2098       O  0.30358440  0.15782098  0.52902973    -0.39700
C2099       C  0.34863991  0.24605928  0.72500879    -0.12000
C2100       C  0.34380205  0.24110049  0.68130652     0.05100
C2101       C  0.32248337  0.22933131  0.66916812    -0.07200
C2102       C  0.30675995  0.22185213  0.70052821    -0.08000
C2103       C  0.31167753  0.22515851  0.74443732    -0.02500
C2104       C  0.33287535  0.23800905  0.75657058     0.04300
N2105       N  0.33885630  0.24275747  0.80058525     0.66800
H2106       H  0.36480418  0.25517645  0.73516165     0.15700
H2107       H  0.29066715  0.21207384  0.69037396     0.15400
N2108       N  0.31636644  0.22360476  0.62552294     0.74500
O2109       O  0.34417391  0.23146370  0.82126707    -0.39000
O2110       O  0.34432367  0.26083568  0.81442142    -0.38900
O2111       O  0.31141983  0.20542789  0.61320009    -0.39600
O2112       O  0.31049738  0.23413355  0.60369556    -0.39700
C2113       C  0.20077316  0.20923026  0.89719839    -0.12000
C2114       C  0.21276560  0.23077072  0.90537333     0.05100
C2115       C  0.23452501  0.24143487  0.89675972    -0.07200
C2116       C  0.24367467  0.23060720  0.87895039    -0.08000
C2117       C  0.23159413  0.20923859  0.86925061    -0.02500
C2118       C  0.20995886  0.19839882  0.87909846     0.04300
N2119       N  0.19727776  0.17634715  0.87260229     0.66800
H2120       H  0.18404881  0.20080791  0.90406981     0.15700
H2121       H  0.26043478  0.23909304  0.87239065     0.15400
N2122       N  0.24773055  0.26303936  0.90733654     0.74500
O2123       O  0.19425641  0.16413696  0.90360438    -0.39000
O2124       O  0.18511789  0.16966245  0.84067314    -0.38900
O2125       O  0.25743367  0.26778108  0.94264907    -0.39600
O2126       O  0.25390721  0.27656381  0.87781654    -0.39700
C2127       C  0.22130508  0.30509285  0.56554915    -0.12000
C2128       C  0.22449859  0.30906405  0.52121560     0.05100
C2129       C  0.23820018  0.32972133  0.50732926    -0.07200
C2130       C  0.24654948  0.34608421  0.53712479    -0.08000
C2131       C  0.24126574  0.34245413  0.58091401    -0.02500
C2132       C  0.22939226  0.32151942  0.59539860     0.04300
N2133       N  0.22460414  0.31650911  0.63980471     0.66800
H2134       H  0.21127667  0.28930926  0.57706791     0.15700
H2135       H  0.25608150  0.36187691  0.52523271     0.15400
N2136       N  0.24316723  0.33483054  0.96282594     0.74500
O2137       O  0.20680819  0.31235812  0.65365463    -0.39000
O2138       O  0.23505122  0.31024854  0.66084512    -0.38900
O2139       O  0.23402723  0.34262880  0.94207551    -0.39600
O2140       O  0.26002902  0.33671173  0.94827755    -0.39700
C2141       C  0.13289497  0.27414804  0.52432565    -0.12000
C2142       C  0.13507987  0.25632672  0.52240883     0.05100
C2143       C  0.12234890  0.23915715  0.54924502    -0.07200
C2144       C  0.10938791  0.24094795  0.57978655    -0.08000
C2145       C  0.10857022  0.25948510  0.58405499    -0.02500
C2146       C  0.11982219  0.27587059  0.55450074     0.04300
N2147       N  0.11849978  0.29450041  0.55478428     0.66800
H2148       H  0.14223226  0.28764373  0.00335478     0.15700
H2149       H  0.10032894  0.22781047  0.60122377     0.15400
N2150       N  0.12229630  0.21984518  0.54616213     0.74500
O2151       O  0.13277853  0.31057274  0.07498220    -0.39000
O2152       O  0.10751802  0.29679463  0.52656956    -0.38900
O2153       O  0.13185805  0.21546631  0.57419745    -0.39600
O2154       O  0.10845541  0.20531657  0.52346562    -0.39700
C2155       C  0.15347117  0.26861920  0.80098555    -0.12000
C2156       C  0.14557995  0.25724833  0.83907228     0.05100
C2157       C  0.12358427  0.24529683  0.84513633    -0.07200
C2158       C  0.10996908  0.24493090  0.81323980    -0.08000
C2159       C  0.11784344  0.25656227  0.77530119    -0.02500
C2160       C  0.13988353  0.26821495  0.76902011     0.04300
N2161       N  0.14870886  0.27980379  0.73035540     0.66800
H2162       H  0.17036515  0.27786285  0.79590867     0.15700
H2163       H  0.09312273  0.23630374  0.81917207     0.15400
N2164       N  0.11493985  0.23503769  0.88514634     0.74500
O2165       O  0.15667993  0.29943452  0.73029763    -0.39000
O2166       O  0.14644547  0.27027564  0.69539018    -0.38900
O2167       O  0.11517982  0.24560004  0.91719007    -0.39600
O2168       O  0.10945382  0.21600058  0.88987140    -0.39700
C2169       C  0.10359015  0.43186013  0.91621899    -0.12000
C2170       C  0.11657820  0.42850741  0.94394275     0.05100
C2171       C  0.11788134  0.43434678  0.98747097    -0.07200
C2172       C  0.10628291  0.44337001  0.00236109    -0.08000
C2173       C  0.09262040  0.44599326  0.97510614    -0.02500
C2174       C  0.09131084  0.44009528  0.93147849     0.04300
N2175       N  0.07745498  0.44205683  0.90222910     0.66800
H2176       H  0.10225457  0.42720050  0.88286795     0.15700
H2177       H  0.10730190  0.44771483  0.53556934     0.15400
N2178       N  0.13072149  0.43126675  0.51698740     0.74500
O2179       O  0.08457862  0.45788477  0.87804136    -0.39000
O2180       O  0.06012575  0.42603276  0.89311239    -0.38900
O2181       O  0.14806440  0.44710988  0.02875671    -0.39600
O2182       O  0.12272490  0.41489402  0.53968412    -0.39700
C2183       C  0.18970725  0.38538411  0.56179867    -0.12000
C2184       C  0.21123118  0.40018868  0.55761113     0.05100
C2185       C  0.21773542  0.41492220  0.52392090    -0.07200
C2186       C  0.20291523  0.41418539  0.99468624    -0.08000
C2187       C  0.18152516  0.39887784  0.99812049    -0.02500
C2188       C  0.17492738  0.38455780  0.53260267     0.04300
N2189       N  0.15335320  0.36906174  0.53872370     0.66800
H2190       H  0.18419791  0.37408653  0.58756156     0.15700
H2191       H  0.20829267  0.42526954  0.96858503     0.15400
N2192       N  0.23932119  0.43047033  0.01796670     0.74500
O2193       O  0.14673767  0.35080993  0.52454668    -0.39000
O2194       O  0.14282477  0.37197679  0.56702839    -0.38900
O2195       O  0.24984530  0.42773367  0.98936771    -0.39600
O2196       O  0.24583390  0.44867834  0.03230539    -0.39700
C2197       C  0.19793337  0.41583610  0.78267703    -0.12000
C2198       C  0.18874864  0.39937520  0.81247377     0.05100
C2199       C  0.19425384  0.38356523  0.81096175    -0.07200
C2200       C  0.20810566  0.38420742  0.77954003    -0.08000
C2201       C  0.21679139  0.40027065  0.74895104    -0.02500
C2202       C  0.21175260  0.41639474  0.75097908     0.04300
N2203       N  0.21964819  0.43293759  0.72007489     0.66800
H2204       H  0.19390900  0.42805452  0.78308128     0.15700
H2205       H  0.21180288  0.37175688  0.77878856     0.15400
N2206       N  0.18584993  0.36652198  0.84071225     0.74500
O2207       O  0.20894615  0.43091094  0.68691304    -0.39000
O2208       O  0.23414840  0.45093552  0.73072760    -0.38900
O2209       O  0.17127090  0.34881207  0.82873603    -0.39600
O2210       O  0.19632389  0.36776455  0.87375427    -0.39700
C2211       C  0.09088256  0.32552034  0.84305054    -0.12000
C2212       C  0.09936375  0.34575485  0.82589539     0.05100
C2213       C  0.09754487  0.34792850  0.78117392    -0.07200
C2214       C  0.08957164  0.33032886  0.75450391    -0.08000
C2215       C  0.08302495  0.31038164  0.77132626    -0.02500
C2216       C  0.08272163  0.30790003  0.81639774     0.04300
N2217       N  0.07589614  0.28794021  0.83570402     0.66800
H2218       H  0.09180577  0.32338787  0.87721176     0.15700
H2219       H  0.08943798  0.33247622  0.72013607     0.15400
N2220       N  0.10479305  0.36791327  0.76166598     0.74500
O2221       O  0.08927571  0.28256580  0.84427692    -0.39000
O2222       O  0.05816473  0.27853234  0.85381011    -0.38900
O2223       O  0.12215768  0.37658722  0.74207843    -0.39600
O2224       O  0.09169721  0.37373755  0.75380289    -0.39700
C2225       C  0.24601881  0.00763468  0.61707182    -0.12000
C2226       C  0.23430004  0.01758797  0.61043329     0.05100
C2227       C  0.21257951  0.00656044  0.61990435    -0.07200
C2228       C  0.20326731  0.98616555  0.63643073    -0.08000
C2229       C  0.21502490  0.97622300  0.64270381    -0.02500
C2230       C  0.23662900  0.98711534  0.63244664     0.04300
N2231       N  0.24947817  0.97791038  0.63861179     0.66800
H2232       H  0.26272697  0.01582988  0.60992165     0.15700
H2233       H  0.18658989  0.97791741  0.64383261     0.15400
N2234       N  0.19983757  0.01591190  0.61437537     0.74500
O2235       O  0.25319054  0.96958058  0.60701310    -0.39000
O2236       O  0.26136355  0.98313537  0.67096868    -0.38900
O2237       O  0.18778309  0.01075993  0.58230325    -0.39600
O2238       O  0.19616808  0.02400495  0.64645308    -0.39700
C2239       C  0.23394150  0.89488867  0.73963389    -0.12000
C2240       C  0.22537413  0.90654093  0.75672338     0.05100
C2241       C  0.22738125  0.91081431  0.80125563    -0.07200
C2242       C  0.23638924  0.90218003  0.82782020    -0.08000
C2243       C  0.24319381  0.88893870  0.81129396    -0.02500
C2244       C  0.24258209  0.88589799  0.76632856     0.04300
N2245       N  0.24865124  0.87213245  0.74733114     0.66800
H2246       H  0.23267007  0.89149051  0.70564272     0.15700
H2247       H  0.23684673  0.90485051  0.86203413     0.15400
N2248       N  0.21874814  0.92229414  0.82091945     0.74500
O2249       O  0.23475207  0.85334793  0.74038953    -0.39000
O2250       O  0.26578528  0.87986608  0.72702714    -0.38900
O2251       O  0.20044922  0.91244251  0.83647727    -0.39600
O2252       O  0.23090404  0.94099136  0.83223339    -0.39700
C2253       C  0.11262377  0.86559435  0.54591406    -0.12000
C2254       C  0.12069666  0.85836910  0.51375322     0.05100
C2255       C  0.14250918  0.86566876  0.51275134    -0.07200
C2256       C  0.15546678  0.87896648  0.54505148    -0.08000
C2257       C  0.14721019  0.88540387  0.57832401    -0.02500
C2258       C  0.12560705  0.87900316  0.57803721     0.04300
N2259       N  0.11619206  0.88487498  0.61124577     0.66800
H2260       H  0.09599250  0.86056482  0.04707194     0.15700
H2261       H  0.17198296  0.88397568  0.54440713     0.15400
N2262       N  0.15190330  0.85973421  0.47958248     0.74500
O2263       O  0.11197991  0.89953888  0.10334496    -0.39000
O2264       O  0.10712925  0.87237636  0.64197418    -0.38900
O2265       O  0.15960141  0.87148722  0.44725672    -0.39600
O2266       O  0.15740534  0.84644335  0.48774254    -0.39700
C2267       C  0.11524327  0.84036535  0.79644751    -0.12000
C2268       C  0.10929877  0.84893220  0.82990369     0.05100
C2269       C  0.11617207  0.87058730  0.82922465    -0.07200
C2270       C  0.12978284  0.88327644  0.79682179    -0.08000
C2271       C  0.13675278  0.87488038  0.76479818    -0.02500
C2272       C  0.12875666  0.85299980  0.76401020     0.04300
N2273       N  0.13440493  0.84323451  0.73118221     0.66800
H2274       H  0.10977567  0.82374376  0.79589427     0.15700
H2275       H  0.13554240  0.89993791  0.79781180     0.15400
N2276       N  0.11056729  0.88029021  0.86226602     0.74500
O2277       O  0.14689467  0.83676937  0.74010216    -0.39000
O2278       O  0.12287659  0.83612450  0.69840294    -0.38900
O2279       O  0.12341961  0.88973706  0.89224658    -0.39600
O2280       O  0.09604101  0.88425827  0.85530594    -0.39700
C2281       C  0.12102260  0.65393051  0.71724221    -0.12000
C2282       C  0.09944745  0.64355322  0.72659752     0.05100
C2283       C  0.08792680  0.65354612  0.71639523    -0.07200
C2284       C  0.09804569  0.67350600  0.69802413    -0.08000
C2285       C  0.11956060  0.68395677  0.68834074    -0.02500
C2286       C  0.13111475  0.67384113  0.69777705     0.04300
N2287       N  0.15308419  0.68357909  0.68892053     0.66800
H2288       H  0.13008290  0.64641196  0.72450321     0.15700
H2289       H  0.08881776  0.68088693  0.69112285     0.15400
N2290       N  0.06597584  0.64394899  0.72545262     0.74500
O2291       O  0.16601305  0.69451315  0.71771477    -0.39000
O2292       O  0.15918005  0.67656702  0.65865890    -0.38900
O2293       O  0.06003548  0.65014035  0.75739701    -0.39600
O2294       O  0.05292817  0.63374145  0.69625664    -0.39700
C2295       C  0.20642119  0.78572489  0.54867661    -0.12000
C2296       C  0.19071377  0.78901591  0.56561542     0.05100
C2297       C  0.19005158  0.80710046  0.55310894    -0.07200
C2298       C  0.20437926  0.82084060  0.52272383    -0.08000
C2299       C  0.21950937  0.81703297  0.50421222    -0.02500
C2300       C  0.22087390  0.79931259  0.01784765     0.04300
N2301       N  0.23677330  0.79528206  0.00244844     0.66800
H2302       H  0.20764237  0.77214044  0.05849195     0.15700
H2303       H  0.20298645  0.83409027  0.51219327     0.15400
N2304       N  0.17410339  0.81107968  0.56857867     0.74500
O2305       O  0.25342282  0.80170559  0.02393010    -0.39000
O2306       O  0.23210632  0.78129330  0.97444369    -0.38900
O2307       O  0.17898239  0.82585001  0.59475516    -0.39600
O2308       O  0.15687266  0.80347092  0.54871188    -0.39700
C2309       C  0.20051294  0.77995086  0.75269556    -0.12000
C2310       C  0.17957202  0.77549799  0.75392503     0.05100
C2311       C  0.17330533  0.78401191  0.78743376    -0.07200
C2312       C  0.18816678  0.79729027  0.81750902    -0.08000
C2313       C  0.20939415  0.80265514  0.81472034    -0.02500
C2314       C  0.21541108  0.79351891  0.78215674     0.04300
N2315       N  0.23672585  0.79860794  0.77686693     0.66800
H2316       H  0.20576933  0.77360848  0.72730090     0.15700
H2317       H  0.18307539  0.80398376  0.84249508     0.15400
N2318       N  0.15214594  0.77967626  0.79135966     0.74500
O2319       O  0.24255299  0.78663345  0.79271280    -0.39000
O2320       O  0.24772257  0.81140223  0.74788491    -0.38900
O2321       O  0.14070270  0.76755098  0.82080595    -0.39600
O2322       O  0.14711290  0.79202822  0.77428530    -0.39700
C2323       C  0.09576039  0.76465756  0.58395389    -0.12000
C2324       C  0.10463153  0.75316573  0.56746239     0.05100
C2325       C  0.10378383  0.74985082  0.52250730    -0.07200
C2326       C  0.09550524  0.75929412  0.99577128    -0.08000
C2327       C  0.08757094  0.77144819  0.51182891    -0.02500
C2328       C  0.08748955  0.77389510  0.55691318     0.04300
N2329       N  0.08091978  0.78728190  0.57585129     0.66800
H2330       H  0.09632558  0.76761467  0.61815439     0.15700
H2331       H  0.09584598  0.75729916  0.96133498     0.15400
N2332       N  0.11238267  0.73823959  0.50334713     0.74500
O2333       O  0.09442162  0.80618343  0.58300363    -0.39000
O2334       O  0.06342728  0.77923219  0.59485781    -0.38900
O2335       O  0.10011318  0.71964564  0.49154644    -0.39600
O2336       O  0.13157664  0.74907074  0.98903968    -0.39700
C2337       C  0.57108581  0.56588139  0.57719217    -0.12000
C2338       C  0.55828771  0.57359172  0.59187294     0.05100
C2339       C  0.55502029  0.57387952  0.63654625    -0.07200
C2340       C  0.56344499  0.56535866  0.66514141    -0.08000
C2341       C  0.57519937  0.55640218  0.65028276    -0.02500
C2342       C  0.57956021  0.55738749  0.60573078     0.04300
N2343       N  0.59162552  0.54890067  0.58822445     0.66800
H2344       H  0.57383820  0.56561920  0.54319894     0.15700
H2345       H  0.55987828  0.56486383  0.69891366     0.15400
N2346       N  0.54176990  0.58118696  0.65328419     0.74500
O2347       O  0.58223632  0.53026153  0.57483514    -0.39000
O2348       O  0.61011426  0.56126166  0.57555134    -0.38900
O2349       O  0.52217214  0.56891207  0.65542475    -0.39600
O2350       O  0.54928755  0.60043020  0.66079914    -0.39700
C2351       C  0.41500595  0.32202850  0.56201437    -0.12000
C2352       C  0.42500458  0.31017951  0.55912051     0.05100
C2353       C  0.44481014  0.31909982  0.53878839    -0.07200
C2354       C  0.45420396  0.33953793  0.52231276    -0.08000
C2355       C  0.44444037  0.35161636  0.52606948    -0.02500
C2356       C  0.42450813  0.34256523  0.54619582     0.04300
N2357       N  0.41327143  0.35359774  0.04986980     0.66800
H2358       H  0.39966386  0.31532299  0.57707673     0.15700
H2359       H  0.46942384  0.34606547  0.50681588     0.15400
N2360       N  0.45521163  0.30738709  0.53268411     0.74500
O2361       O  0.39997358  0.35118192  0.02157985    -0.39000
O2362       O  0.41270190  0.36114624  0.08583496    -0.38900
O2363       O  0.45418583  0.29931735  0.49642636    -0.39600
O2364       O  0.46973668  0.31021626  0.55812320    -0.39700
C2365       C  0.52485329  0.47323755  0.89489936    -0.12000
C2366       C  0.52436511  0.45421584  0.90246171     0.05100
C2367       C  0.53865537  0.45030479  0.87976075    -0.07200
C2368       C  0.55244219  0.46498221  0.84962355    -0.08000
C2369       C  0.55220167  0.48356444  0.84074904    -0.02500
C2370       C  0.53830231  0.48766814  0.86431831     0.04300
N2371       N  0.53673238  0.50585632  0.85629109     0.66800
H2372       H  0.51409944  0.47671787  0.91169902     0.15700
H2373       H  0.56294117  0.46141138  0.83206382     0.15400
N2374       N  0.53926250  0.43146901  0.88606440     0.74500
O2375       O  0.52199044  0.50428978  0.83299206    -0.39000
O2376       O  0.54645312  0.52160145  0.88033566    -0.38900
O2377       O  0.53085430  0.41709509  0.85844596    -0.39600
O2378       O  0.55270831  0.43163077  0.91140799    -0.39700
C2379       C  0.53254802  0.44571945  0.59212267    -0.12000
C2380       C  0.51230676  0.44323727  0.59135339     0.05100
C2381       C  0.50687094  0.45332453  0.62294234    -0.07200
C2382       C  0.52181534  0.46617485  0.65317425    -0.08000
C2383       C  0.54246714  0.46970534  0.65236317    -0.02500
C2384       C  0.54764165  0.45890443  0.62193483     0.04300
N2385       N  0.56819719  0.46150460  0.61973018     0.66800
H2386       H  0.53706091  0.43806871  0.56830580     0.15700
H2387       H  0.51731020  0.47405770  0.67646112     0.15400
N2388       N  0.48646059  0.45112591  0.62457930     0.74500
O2389       O  0.57141078  0.44782837  0.63658052    -0.39000
O2390       O  0.58095199  0.47374323  0.59195643    -0.38900
O2391       O  0.47354432  0.43926117  0.65255766    -0.39600
O2392       O  0.48357214  0.46484750  0.60689984    -0.39700
C2393       C  0.34247084  0.45721467  0.71567566    -0.12000
C2394       C  0.35283551  0.44574825  0.72007333     0.05100
C2395       C  0.34230571  0.42449394  0.70737210    -0.07200
C2396       C  0.32166974  0.41514863  0.69199033    -0.08000
C2397       C  0.31135816  0.42665866  0.68753634    -0.02500
C2398       C  0.32206845  0.44800390  0.69903177     0.04300
N2399       N  0.31226511  0.46040698  0.69558184     0.66800
H2400       H  0.35035997  0.47360097  0.72477673     0.15700
H2401       H  0.31368692  0.39872824  0.68309018     0.15400
N2402       N  0.35202584  0.41197932  0.71063910     0.74500
O2403       O  0.30332339  0.46258288  0.72810609    -0.39000
O2404       O  0.31722979  0.47315827  0.66480781    -0.38900
O2405       O  0.34725594  0.39940881  0.74170137    -0.39600
O2406       O  0.36037479  0.40931514  0.67767260    -0.39700
C2407       C  0.47591213  0.53128622  0.83902496    -0.12000
C2408       C  0.45481043  0.52635931  0.84105166     0.05100
C2409       C  0.44916437  0.53675628  0.87162114    -0.07200
C2410       C  0.46423568  0.55064284  0.90074181    -0.08000
C2411       C  0.48483526  0.55402268  0.90106421    -0.02500
C2412       C  0.49076043  0.54461783  0.86889383     0.04300
N2413       N  0.51130923  0.54717215  0.86763505     0.66800
H2414       H  0.48081936  0.52380180  0.81551747     0.15700
H2415       H  0.45933054  0.55783167  0.92494330     0.15400
N2416       N  0.42807071  0.53256862  0.87556637     0.74500
O2417       O  0.51491501  0.53486243  0.88921440    -0.39000
O2418       O  0.52365397  0.55762940  0.83756803    -0.38900
O2419       O  0.41658301  0.52043513  0.90495099    -0.39600
O2420       O  0.42316926  0.54504642  0.85863681    -0.39700
C2421       C  0.46185826  0.54557955  0.61659080    -0.12000
C2422       C  0.47273593  0.53884894  0.59022947     0.05100
C2423       C  0.46880736  0.51811100  0.59500433    -0.07200
C2424       C  0.45512898  0.50515285  0.62711957    -0.11600
C2425       C  0.44494423  0.51222468  0.65466123    -0.02500
C2426       C  0.44804762  0.53256140  0.64841956     0.04300
N2427       N  0.43811114  0.54073295  0.67520156     0.66800
H2428       H  0.46442896  0.56129302  0.61326760     0.15700
H2429       H  0.45286481  0.48958045  0.63107427     0.15400
N2430       N  0.47893878  0.51001189  0.56856148     0.74500
O2431       O  0.44837248  0.55284696  0.70562834    -0.39000
O2432       O  0.42165742  0.54023756  0.66207768    -0.38900
O2433       O  0.49560283  0.51094840  0.58168172    -0.39600
O2434       O  0.46868765  0.49752271  0.53862455    -0.39700
C2435       C  0.44011106  0.41831011  0.86016031    -0.12000
C2436       C  0.43633534  0.41967068  0.90392762     0.05100
C2437       C  0.42329355  0.42774181  0.91559545    -0.07200
C2438       C  0.41606790  0.43610345  0.88400043    -0.08000
C2439       C  0.42170971  0.43673569  0.84061324    -0.02500
C2440       C  0.43308283  0.42682729  0.82860414     0.04300
N2441       N  0.43868713  0.42618108  0.78494668     0.66800
H2442       H  0.44980670  0.41189381  0.85036417     0.15700
H2443       H  0.40688806  0.44306971  0.89392838     0.15400
N2444       N  0.41750181  0.42795234  0.95929498     0.74500
O2445       O  0.45673671  0.43967367  0.77188120    -0.39000
O2446       O  0.42823172  0.40950286  0.76382662    -0.38900
O2447       O  0.42652178  0.44487362  0.98012243    -0.39600
O2448       O  0.40034432  0.41304054  0.97303124    -0.39700
C2449       C  0.90719856  0.57879638  0.56810242    -0.12000
C2450       C  0.88524570  0.56889774  0.56595502     0.05100
C2451       C  0.87404178  0.54896784  0.54654616    -0.07200
C2452       C  0.88495879  0.53977771  0.52838911    -0.08000
C2453       C  0.90698799  0.54981851  0.53004585    -0.02500
C2454       C  0.91808137  0.56940559  0.55108030     0.04300
N2455       N  0.94046542  0.58038209  0.55435643     0.66800
H2456       H  0.91605829  0.59408070  0.58302320     0.15700
H2457       H  0.87609092  0.52463137  0.51295291     0.15400
N2458       N  0.85168416  0.53830281  0.54299228     0.74500
O2459       O  0.95125677  0.59457782  0.52749039    -0.39000
O2460       O  0.94888093  0.57947888  0.58896579    -0.38900
O2461       O  0.84345874  0.54018410  0.50900196    -0.39600
O2462       O  0.84066775  0.52355946  0.56863244    -0.39700
C2463       C  0.99430613  0.77792651  0.82933960    -0.12000
C2464       C  0.97728892  0.77018695  0.85777669     0.05100
C2465       C  0.98118986  0.77238611  0.90244302    -0.07200
C2466       C  0.00184284  0.78141790  0.91769059    -0.08000
C2467       C  0.01873605  0.78796525  0.88919515    -0.02500
C2468       C  0.01488444  0.78658216  0.84455675     0.04300
N2469       N  0.03167392  0.79430226  0.81412908     0.66800
H2470       H  0.99158684  0.77651539  0.79501289     0.15700
H2471       H  0.00461895  0.78280580  0.95199023     0.15400
N2472       N  0.96448963  0.76600887  0.93275932     0.74500
O2473       O  0.03641293  0.78170961  0.79722541    -0.39000
O2474       O  0.03760034  0.81173336  0.79626038    -0.38900
O2475       O  0.95808019  0.74907808  0.95305133    -0.39600
O2476       O  0.96031282  0.77947660  0.94709384    -0.39700
C2477       C  0.90035818  0.66499920  0.75686623    -0.12000
C2478       C  0.91464775  0.68482894  0.74028640     0.05100
C2479       C  0.92083367  0.68640746  0.69681927    -0.07200
C2480       C  0.91105109  0.66878656  0.67007315    -0.08000
C2481       C  0.89538359  0.64935664  0.68589964    -0.02500
C2482       C  0.89062193  0.64739351  0.73027507     0.04300
N2483       N  0.87448156  0.62822765  0.74841643     0.66800
H2484       H  0.89540859  0.66332691  0.79000628     0.15700
H2485       H  0.91527325  0.67049527  0.63648132     0.15400
N2486       N  0.93655445  0.70581139  0.67878496     0.74500
O2487       O  0.85605740  0.62521518  0.75110701    -0.39000
O2488       O  0.87962211  0.61753713  0.77167734    -0.38900
O2489       O  0.95522577  0.70950361  0.67652841    -0.39600
O2490       O  0.93104399  0.71629717  0.65581116    -0.39700
C2491       C  0.67909305  0.57567923  0.79256960    -0.12000
C2492       C  0.68689714  0.56276541  0.80624875     0.05100
C2493       C  0.67409590  0.54087619  0.80144241    -0.07200
C2494       C  0.65402597  0.53248398  0.78307721    -0.08000
C2495       C  0.64610460  0.54545784  0.77047304    -0.02500
C2496       C  0.65891352  0.56730998  0.77540383     0.04300
N2497       N  0.65192819  0.58135969  0.76244482     0.66800
H2498       H  0.68863269  0.59253669  0.79577481     0.15700
H2499       H  0.64434053  0.51564826  0.77980864     0.15400
N2500       N  0.68116551  0.52692967  0.81457695     0.74500
O2501       O  0.64425373  0.58802369  0.79025222    -0.39000
O2502       O  0.65852937  0.59117925  0.72748023    -0.38900
O2503       O  0.67569065  0.51820626  0.85085586    -0.39600
O2504       O  0.68790324  0.51939403  0.78663082    -0.39700
C2505       C  0.78977833  0.60968844  0.72106855    -0.12000
C2506       C  0.78013843  0.59216585  0.74811961     0.05100
C2507       C  0.78416635  0.57556135  0.74142061    -0.07200
C2508       C  0.79838332  0.57729855  0.70966292    -0.08000
C2509       C  0.80869016  0.59520059  0.68380391    -0.02500
C2510       C  0.80385387  0.61135319  0.68907207     0.04300
N2511       N  0.81350424  0.62990272  0.66337911     0.66800
H2512       H  0.78675161  0.62250369  0.72528875     0.15700
H2513       H  0.80168453  0.56464435  0.70591385     0.15400
N2514       N  0.77455528  0.55706116  0.76723691     0.74500
O2515       O  0.82881606  0.64634128  0.67849176    -0.39000
O2516       O  0.80353118  0.63132632  0.63185652    -0.38900
O2517       O  0.76020348  0.54024094  0.75118387    -0.39600
O2518       O  0.78381797  0.55629050  0.80066965    -0.39700
C2519       C  0.81085063  0.61237152  0.93824653    -0.12000
C2520       C  0.79191477  0.59322860  0.93360174     0.05100
C2521       C  0.78914003  0.57583203  0.95759830    -0.07200
C2522       C  0.80435317  0.57836675  0.48729104    -0.08000
C2523       C  0.82267729  0.59781399  0.49398526    -0.02500
C2524       C  0.82620385  0.61475557  0.96789693     0.04300
N2525       N  0.84496917  0.63466285  0.97127195     0.66800
H2526       H  0.81364012  0.62593917  0.91942349     0.15700
H2527       H  0.80145748  0.56479561  0.50624255     0.15400
N2528       N  0.77103594  0.55573737  0.45184182     0.74500
O2529       O  0.85955657  0.63946249  0.94446128    -0.39000
O2530       O  0.84472219  0.64895193  0.99296299    -0.38900
O2531       O  0.77193846  0.54316938  0.42571578    -0.39600
O2532       O  0.75677174  0.54874843  0.47999540    -0.39700
C2533       C  0.85162858  0.71520327  0.95484762    -0.12000
C2534       C  0.84944509  0.73285111  0.96087019     0.05100
C2535       C  0.86187794  0.75090344  0.93586149    -0.07200
C2536       C  0.87629376  0.75094803  0.90635930    -0.08000
C2537       C  0.87860732  0.73331204  0.90093499    -0.02500
C2538       C  0.86595682  0.71523430  0.92564552     0.04300
N2539       N  0.86751026  0.69677604  0.92221907     0.66800
H2540       H  0.84268467  0.70133190  0.47444221     0.15700
H2541       H  0.88576163  0.76500386  0.88744963     0.15400
N2542       N  0.86047713  0.76939852  0.94028390     0.74500
O2543       O  0.87867605  0.69407414  0.45163286    -0.39000
O2544       O  0.85420605  0.68168876  0.89983290    -0.38900
O2545       O  0.87421801  0.78442850  0.96213278    -0.39600
O2546       O  0.84985645  0.77292504  0.91326989    -0.39700
C2547       C  0.87007649  0.74847648  0.64775079    -0.12000
C2548       C  0.84872319  0.73353446  0.65361390     0.05100
C2549       C  0.84257655  0.72101422  0.69086117    -0.07200
C2550       C  0.85767078  0.72338344  0.72080500    -0.08000
C2551       C  0.87910786  0.73782347  0.71452736    -0.02500
C2552       C  0.88531092  0.75060340  0.67755513     0.04300
N2553       N  0.90694437  0.76480099  0.66831494     0.66800
H2554       H  0.87513734  0.75808526  0.61892999     0.15700
H2555       H  0.85245201  0.71350848  0.74923934     0.15400
N2556       N  0.82107613  0.70589831  0.69912338     0.74500
O2557       O  0.91717141  0.75841342  0.64689042    -0.39000
O2558       O  0.91400128  0.78423024  0.67164319    -0.38900
O2559       O  0.81451106  0.68685022  0.69116561    -0.39600
O2560       O  0.81041361  0.71072656  0.72329328    -0.39700
C2561       C  0.75766215  0.67394116  0.95303068    -0.12000
C2562       C  0.76367137  0.67148555  0.99454931     0.05100
C2563       C  0.75961516  0.65140821  0.00720720    -0.07200
C2564       C  0.75165990  0.63503385  0.97740681    -0.08000
C2565       C  0.74803143  0.63820355  0.93457240    -0.02500
C2566       C  0.75004485  0.65759034  0.92298997     0.04300
N2567       N  0.74457897  0.66107061  0.88102447     0.66800
H2568       H  0.76004046  0.68898055  0.94285154     0.15700
H2569       H  0.75000463  0.62021575  0.98711919     0.15400
N2570       N  0.76500068  0.64760393  0.04897966     0.74500
O2571       O  0.72635688  0.65813807  0.87479377    -0.39000
O2572       O  0.75901374  0.67227303  0.85487475    -0.38900
O2573       O  0.75036655  0.63798447  0.57579983    -0.39600
O2574       O  0.78256460  0.64882029  0.05443862    -0.39700
C2575       C  0.56628398  0.00022895  0.82586645    -0.12000
C2576       C  0.56053847  0.98043280  0.84265430     0.05100
C2577       C  0.56555373  0.97902888  0.88594339    -0.07200
C2578       C  0.57367939  0.99676237  0.91250002    -0.08000
C2579       C  0.57745279  0.01609721  0.89646542    -0.02500
C2580       C  0.57454777  0.01792848  0.85215094     0.04300
N2581       N  0.57746041  0.03699410  0.83405463     0.66800
H2582       H  0.56288027  0.00182795  0.79276449     0.15700
H2583       H  0.57634503  0.99522530  0.94610595     0.15400
N2584       N  0.56207982  0.95975042  0.90392437     0.74500
O2585       O  0.59352583  0.04809502  0.81142325    -0.39000
O2586       O  0.56190262  0.03972508  0.83127620    -0.38900
O2587       O  0.57698798  0.95595802  0.90406463    -0.39600
O2588       O  0.54676915  0.94970022  0.92905829    -0.39700
C2589       C  0.46155085  0.11792216  0.78165034    -0.12000
C2590       C  0.44920614  0.09747667  0.76602887     0.05100
C2591       C  0.42714854  0.08751351  0.76985687    -0.07200
C2592       C  0.41797930  0.09796480  0.78961673    -0.08000
C2593       C  0.43031370  0.11829475  0.80604863    -0.02500
C2594       C  0.45236488  0.12834491  0.80168808     0.04300
N2595       N  0.46566171  0.14932582  0.81604870     0.66800
H2596       H  0.47853444  0.12578274  0.77898074     0.15700
H2597       H  0.40098184  0.09005502  0.79194231     0.15400
N2598       N  0.41375236  0.06719346  0.75217885     0.74500
O2599       O  0.47474184  0.15244318  0.85187735    -0.39000
O2600       O  0.47231869  0.16408986  0.78916156    -0.38900
O2601       O  0.40452724  0.05166987  0.77705630    -0.39600
O2602       O  0.40716906  0.06569941  0.71421276    -0.39700
C2603       C  0.53174271  0.08514744  0.83731842    -0.12000
C2604       C  0.51258233  0.06660534  0.83002392     0.05100
C2605       C  0.50790197  0.04866379  0.85451798    -0.07200
C2606       C  0.52252686  0.04955421  0.88438789    -0.08000
C2607       C  0.54203128  0.06790028  0.89043743    -0.02500
C2608       C  0.54648782  0.08591905  0.86665606     0.04300
N2609       N  0.56600073  0.10503558  0.87104153     0.66800
H2610       H  0.53578654  0.09918176  0.81886387     0.15700
H2611       H  0.51864762  0.03544960  0.90242723     0.15400
N2612       N  0.48855486  0.02938615  0.84958115     0.74500
O2613       O  0.58090389  0.10867027  0.84589868    -0.39000
O2614       O  0.56645527  0.12003512  0.89131299    -0.38900
O2615       O  0.48791877  0.01558454  0.82477398    -0.39600
O2616       O  0.47454499  0.02405753  0.87799415    -0.39700
C2617       C  0.53464410  0.06158147  0.64549408    -0.12000
C2618       C  0.52736242  0.07576498  0.63998882     0.05100
C2619       C  0.53438980  0.08923066  0.60401205    -0.07200
C2620       C  0.54738751  0.08738242  0.57353579    -0.08000
C2621       C  0.55330715  0.07209134  0.57765579    -0.02500
C2622       C  0.54727456  0.05949760  0.61476713     0.04300
N2623       N  0.55360097  0.04435261  0.62178187     0.66800
H2624       H  0.52988990  0.05134480  0.67329359     0.15700
H2625       H  0.55199810  0.09733494  0.54529175     0.15400
N2626       N  0.52762499  0.10399111  0.59639815     0.74500
O2627       O  0.56925640  0.04905312  0.64546638    -0.39000
O2628       O  0.54075090  0.02532259  0.61412833    -0.38900
O2629       O  0.54015735  0.12312535  0.60378310    -0.39600
O2630       O  0.51206241  0.09890959  0.57216750    -0.39700
C2631       C  0.32482484  0.90194042  0.92716461    -0.12000
C2632       C  0.31137847  0.88112246  0.93936477     0.05100
C2633       C  0.31842870  0.87170280  0.96919269    -0.07200
C2634       C  0.33887389  0.88300534  0.98558654    -0.08000
C2635       C  0.35269918  0.90373248  0.97268635    -0.02500
C2636       C  0.34592535  0.91251387  0.44108987     0.04300
N2637       N  0.35944486  0.93312011  0.42476014     0.66800
H2638       H  0.32017654  0.90853746  0.40172048     0.15700
H2639       H  0.34390502  0.87544561  0.00861689     0.15400
N2640       N  0.30466115  0.85107901  0.98505380     0.74500
O2641       O  0.36921375  0.93525815  0.39010405    -0.39000
O2642       O  0.35711682  0.94799061  0.43783138    -0.38900
O2643       O  0.30613864  0.83595824  0.97041241    -0.39600
O2644       O  0.29503794  0.84885191  0.01995024    -0.39700
C2645       C  0.44619194  0.93315888  0.88193355    -0.12000
C2646       C  0.44539800  0.92463999  0.92246836     0.05100
C2647       C  0.45652277  0.91391803  0.92952304    -0.07200
C2648       C  0.46899455  0.91286857  0.89671354    -0.08000
C2649       C  0.47050417  0.92218968  0.85666782    -0.02500
C2650       C  0.45829185  0.93175144  0.84891596     0.04300
N2651       N  0.45746986  0.93958764  0.80743029     0.66800
H2652       H  0.43722907  0.94088371  0.87571492     0.15700
H2653       H  0.47830509  0.90555227  0.90333405     0.15400
N2654       N  0.45658482  0.90533253  0.97060521     0.74500
O2655       O  0.44333107  0.92763831  0.78151555    -0.39000
O2656       O  0.46680335  0.95910785  0.80127580    -0.38900
O2657       O  0.44296554  0.88358043  0.47082683    -0.39600
O2658       O  0.47119118  0.91614877  0.99667631    -0.39700
C2659       C  0.44978962  0.91051322  0.62286337    -0.12000
C2660       C  0.45272495  0.92999566  0.61007975     0.05100
C2661       C  0.46980219  0.94841811  0.62703840    -0.07200
C2662       C  0.48356417  0.94704906  0.65588570    -0.08000
C2663       C  0.48062528  0.92759913  0.66915309    -0.02500
C2664       C  0.46349377  0.90913250  0.65219430     0.04300
N2665       N  0.45969736  0.88883523  0.66397009     0.66800
H2666       H  0.43691188  0.89629314  0.60983229     0.15700
H2667       H  0.49619880  0.96138168  0.66909666     0.15400
N2668       N  0.47277326  0.96867208  0.61754535     0.74500
O2669       O  0.44552933  0.87829717  0.69113846    -0.39000
O2670       O  0.46587920  0.87950628  0.63923066    -0.38900
O2671       O  0.46514170  0.97653000  0.64264894    -0.39600
O2672       O  0.48721846  0.98051545  0.59201052    -0.39700
C2673       C  0.42977714  0.00258370  0.57482698    -0.12000
C2674       C  0.41972639  0.98255466  0.59332722     0.05100
C2675       C  0.41733526  0.98074841  0.63848711    -0.07200
C2676       C  0.42668042  0.99875892  0.66390809    -0.08000
C2677       C  0.43851219  0.01869370  0.64550504    -0.02500
C2678       C  0.43918008  0.02059047  0.60028600     0.04300
N2679       N  0.45061758  0.04045006  0.57939649     0.66800
H2680       H  0.43152176  0.00434722  0.54028495     0.15700
H2681       H  0.42561397  0.99697414  0.69850800     0.15400
N2682       N  0.40689233  0.96087664  0.65958664     0.74500
O2683       O  0.46942379  0.04706895  0.56838308    -0.39000
O2684       O  0.44060262  0.04824496  0.56211032    -0.38900
O2685       O  0.41775233  0.95371399  0.67557812    -0.39600
O2686       O  0.38834104  0.95390317  0.67279422    -0.39700
C2687       C  0.89509742  0.31574280  0.78404555    -0.12000
C2688       C  0.87579328  0.30794722  0.80547287     0.05100
C2689       C  0.86678429  0.32087060  0.80882071    -0.07200
C2690       C  0.87697711  0.34094075  0.79031335    -0.08000
C2691       C  0.89652489  0.34881134  0.77003257    -0.02500
C2692       C  0.90564892  0.33603137  0.76719141     0.04300
N2693       N  0.92562449  0.34335516  0.74718260     0.66800
H2694       H  0.90238069  0.30618952  0.78107685     0.15700
H2695       H  0.87001318  0.35077385  0.79350637     0.15400
N2696       N  0.84760496  0.31415113  0.83160353     0.74500
O2697       O  0.94184891  0.35048845  0.77031412    -0.39000
O2698       O  0.92634639  0.33792223  0.70911684    -0.38900
O2699       O  0.84833590  0.31927444  0.87047194    -0.39600
O2700       O  0.83075734  0.30778412  0.81087298    -0.39700
C2701       C  0.00874958  0.21022788  0.63637536    -0.12000
C2702       C  0.01864782  0.23210761  0.64035161     0.05100
C2703       C  0.00880702  0.24255203  0.62237578    -0.07200
C2704       C  0.98935087  0.23110050  0.60215818    -0.08000
C2705       C  0.97941170  0.20929657  0.59821170    -0.02500
C2706       C  0.98940180  0.19878186  0.61512547     0.04300
N2707       N  0.97993055  0.17654573  0.61248016     0.66800
H2708       H  0.01618121  0.20194293  0.64935731     0.15700
H2709       H  0.98193835  0.23943914  0.58932324     0.15400
N2710       N  0.01803126  0.26475931  0.62493428     0.74500
O2711       O  0.98585538  0.16878751  0.58338520    -0.39000
O2712       O  0.97055511  0.16556631  0.64494809    -0.38900
O2713       O  0.02630951  0.27566626  0.59176578    -0.39600
O2714       O  0.01291380  0.27248649  0.65550670    -0.39700
C2715       C  0.90460121  0.23435696  0.98786503    -0.12000
C2716       C  0.91010171  0.22032023  0.97021271     0.05100
C2717       C  0.90780845  0.21665112  0.92546211    -0.07200
C2718       C  0.89877053  0.22577169  0.90014972    -0.08000
C2719       C  0.89179594  0.23860949  0.91832074    -0.02500
C2720       C  0.89572030  0.24362628  0.96247465     0.04300
N2721       N  0.89001827  0.25737857  0.98275386     0.66800
H2722       H  0.90708159  0.23798100  0.52159323     0.15700
H2723       H  0.89605079  0.22169199  0.86648002     0.15400
N2724       N  0.91233942  0.20191443  0.90576915     0.74500
O2725       O  0.87384376  0.25039000  0.50350792    -0.39000
O2726       O  0.90400690  0.27617800  0.98913246    -0.38900
O2727       O  0.89756097  0.18341015  0.89987015    -0.39600
O2728       O  0.92926064  0.20849271  0.88512212    -0.39700
C2729       C  0.88082014  0.12264290  0.64738116    -0.12000
C2730       C  0.88532790  0.14351899  0.64950651     0.05100
C2731       C  0.87609776  0.14929748  0.68239688    -0.07200
C2732       C  0.86295805  0.13435066  0.71242269    -0.08000
C2733       C  0.85809278  0.11335485  0.70977278    -0.02500
C2734       C  0.86705682  0.10752389  0.67646531     0.04300
N2735       N  0.86156539  0.08624001  0.66991025     0.66800
H2736       H  0.88729771  0.11772446  0.62183809     0.15700
H2737       H  0.85617407  0.13923674  0.73741841     0.15400
N2738       N  0.87952296  0.17007087  0.68578024     0.74500
O2739       O  0.84689267  0.07515515  0.64417624    -0.39000
O2740       O  0.87459665  0.08060029  0.67982483    -0.38900
O2741       O  0.86572414  0.17381801  0.67139000    -0.39600
O2742       O  0.89251312  0.18236273  0.71309315    -0.39700
C2743       C  0.86111096  0.12344456  0.96929820    -0.12000
C2744       C  0.88273004  0.13470495  0.95989826     0.05100
C2745       C  0.88971793  0.13169145  0.91981109    -0.07200
C2746       C  0.87506184  0.11784363  0.89005781    -0.08000
C2747       C  0.85341573  0.10719592  0.89904512    -0.02500
C2748       C  0.84647975  0.10996600  0.93928343     0.04300
N2749       N  0.82473936  0.09900745  0.95071538     0.66800
H2750       H  0.85538439  0.12534114  0.99996189     0.15700
H2751       H  0.88059824  0.11605236  0.85908964     0.15400
N2752       N  0.91135020  0.14330872  0.90761975     0.74500
O2753       O  0.81746715  0.08204071  0.97128403    -0.39000
O2754       O  0.81478048  0.10878509  0.95103860    -0.38900
O2755       O  0.92218824  0.13438131  0.40971450    -0.39600
O2756       O  0.91767121  0.15949778  0.88478758    -0.39700
C2757       C  0.66002592  0.10166581  0.99204184    -0.12000
C2758       C  0.64325217  0.09506655  0.52026877     0.05100
C2759       C  0.64737611  0.09779630  0.56476523    -0.07200
C2760       C  0.66810476  0.10738330  0.57957966    -0.08000
C2761       C  0.68487083  0.11338428  0.55099254    -0.02500
C2762       C  0.68069102  0.11038253  0.50643745     0.04300
N2763       N  0.69709796  0.11585499  0.97620048     0.66800
H2764       H  0.65698000  0.09935904  0.95784991     0.15700
H2765       H  0.67103227  0.10946099  0.61382832     0.15400
N2766       N  0.63074368  0.09086409  0.59541612     0.74500
O2767       O  0.70016635  0.10167667  0.96165284    -0.39000
O2768       O  0.70406554  0.13276488  0.95554653    -0.38900
O2769       O  0.62547127  0.07437064  0.61656325    -0.39600
O2770       O  0.62535188  0.10358927  0.60881916    -0.39700
C2771       C  0.77709177  0.19468068  0.71019897    -0.12000
C2772       C  0.78472561  0.18476498  0.68333908     0.05100
C2773       C  0.80593263  0.18991647  0.68758553    -0.07200
C2774       C  0.81871945  0.20425659  0.71874935    -0.08000
C2775       C  0.81096507  0.21369852  0.74656930    -0.02500
C2776       C  0.78991565  0.20900461  0.74161601     0.04300
N2777       N  0.78097477  0.21804585  0.76882160     0.66800
H2778       H  0.76096253  0.19105004  0.70742204     0.15700
H2779       H  0.83472667  0.20753593  0.72186101     0.15400
N2780       N  0.81468470  0.18018248  0.66183325     0.74500
O2781       O  0.78053248  0.23402437  0.75600938    -0.39000
O2782       O  0.76890390  0.20720327  0.79891446    -0.38900
O2783       O  0.82626426  0.19005406  0.63037355    -0.39600
O2784       O  0.81503947  0.16440837  0.67632841    -0.39700
C2785       C  0.77966643  0.19666442  0.99607729    -0.12000
C2786       C  0.77695159  0.17639342  0.99643471     0.05100
C2787       C  0.78703966  0.17098119  0.96475780    -0.07200
C2788       C  0.80007276  0.18591527  0.93474976    -0.08000
C2789       C  0.80358766  0.20646960  0.93554552    -0.02500
C2790       C  0.79289451  0.21169654  0.96615461     0.04300
N2791       N  0.79544034  0.23216358  0.96794134     0.66800
H2792       H  0.77197074  0.20113471  0.01988338     0.15700
H2793       H  0.80790791  0.18140370  0.91134529     0.15400
N2794       N  0.78463798  0.15056907  0.96278782     0.74500
O2795       O  0.78252087  0.23569336  0.94842619    -0.39000
O2796       O  0.80704274  0.24476443  0.99653170    -0.38900
O2797       O  0.77251047  0.13776258  0.93504231    -0.39600
O2798       O  0.79870459  0.14768192  0.48146670    -0.39700
C2799       C  0.76207627  0.08604554  0.65445242    -0.12000
C2800       C  0.75218556  0.09617703  0.67285136     0.05100
C2801       C  0.75010127  0.09576363  0.71811154    -0.07200
C2802       C  0.75985609  0.08743610  0.74363661    -0.08000
C2803       C  0.77135794  0.07897269  0.72518943    -0.02500
C2804       C  0.77142017  0.07732007  0.67992979     0.04300
N2805       N  0.78194643  0.06801559  0.65887078     0.66800
H2806       H  0.76350311  0.08574498  0.61989570     0.15700
H2807       H  0.75911533  0.08839724  0.77822422     0.15400
N2808       N  0.73906106  0.10456381  0.73907299     0.74500
O2809       O  0.77111663  0.05016618  0.64209936    -0.39000
O2810       O  0.80078265  0.07950188  0.64716696    -0.38900
O2811       O  0.72042972  0.09251206  0.75137418    -0.39600
O2812       O  0.74934768  0.12259923  0.75532392    -0.39700
C2813       C  0.57825993  0.67762091  0.96064963    -0.12000
C2814       C  0.56587919  0.68449393  0.93981180     0.05100
C2815       C  0.54395313  0.67061712  0.93696292    -0.07200
C2816       C  0.53506720  0.65048195  0.95498310    -0.08000
C2817       C  0.54765103  0.64371537  0.97519180    -0.02500
C2818       C  0.56944381  0.65754541  0.97808162     0.04300
N2819       N  0.58290398  0.65188151  0.49977687     0.66800
H2820       H  0.59508140  0.68792784  0.96362974     0.15700
H2821       H  0.51827986  0.63989264  0.95226127     0.15400
N2822       N  0.53041308  0.67660498  0.91649094     0.74500
O2823       O  0.59397207  0.64643945  0.47856963    -0.39000
O2824       O  0.58797756  0.65799218  0.53799927    -0.38900
O2825       O  0.52371583  0.66989765  0.87921686    -0.39600
O2826       O  0.52084900  0.68329403  0.93923097    -0.39700
C2827       C  0.77569449  0.77027944  0.57967580    -0.12000
C2828       C  0.78049277  0.75822214  0.60713711     0.05100
C2829       C  0.77592392  0.75756749  0.65145814    -0.07200
C2830       C  0.76673693  0.76887281  0.66719033    -0.08000
C2831       C  0.76132739  0.78029726  0.63938291    -0.02500
C2832       C  0.76588560  0.78098788  0.59524797     0.04300
N2833       N  0.76107541  0.79285731  0.56591612     0.66800
H2834       H  0.77916216  0.77105715  0.54567245     0.15700
H2835       H  0.76316652  0.76814623  0.70113397     0.15400
N2836       N  0.78059918  0.74567556  0.68104689     0.74500
O2837       O  0.77487983  0.81154100  0.55775107    -0.39000
O2838       O  0.74556438  0.78342382  0.54103863    -0.38900
O2839       O  0.79592596  0.75510376  0.70636854    -0.39600
O2840       O  0.76676960  0.72697272  0.68900549    -0.39700
C2841       C  0.66707387  0.76080941  0.83734160    -0.12000
C2842       C  0.64657707  0.74893221  0.82121886     0.05100
C2843       C  0.64393704  0.74401692  0.77687976    -0.07200
C2844       C  0.66144210  0.75265726  0.74946608    -0.08000
C2845       C  0.68169281  0.76618913  0.76516403    -0.02500
C2846       C  0.68451681  0.76962453  0.80995308     0.04300
N2847       N  0.70454483  0.78411760  0.82777848     0.66800
H2848       H  0.66957466  0.76480301  0.87113248     0.15700
H2849       H  0.65900407  0.74965622  0.71529234     0.15400
N2850       N  0.62358737  0.73148133  0.75843124     0.74500
O2851       O  0.70991578  0.80321664  0.83032739    -0.39000
O2852       O  0.71428011  0.77732249  0.84965464    -0.38900
O2853       O  0.61524367  0.74033442  0.73854857    -0.39600
O2854       O  0.61676185  0.71224060  0.75232548    -0.39700
C2855       C  0.57881198  0.90173757  0.69165512    -0.12000
C2856       C  0.56837422  0.87985091  0.68946829     0.05100
C2857       C  0.54765169  0.86819111  0.70533417    -0.07200
C2858       C  0.53792876  0.87857779  0.72338007    -0.08000
C2859       C  0.54832225  0.90052750  0.72523478    -0.02500
C2860       C  0.56901022  0.91214486  0.70880369     0.04300
N2861       N  0.58058293  0.93450374  0.71018224     0.66800
H2862       H  0.59480703  0.91092298  0.67981240     0.15700
H2863       H  0.52203485  0.86936524  0.73569805     0.15400
N2864       N  0.53660684  0.84583898  0.70524804     0.74500
O2865       O  0.59298733  0.94353550  0.74103585    -0.39000
O2866       O  0.58242016  0.94471805  0.67637777    -0.38900
O2867       O  0.53651485  0.83622063  0.73881508    -0.39600
O2868       O  0.52307878  0.83612522  0.67650856    -0.39700
C2869       C  0.61680028  0.79589211  0.51493986    -0.12000
C2870       C  0.59739778  0.77999596  0.99976450     0.05100
C2871       C  0.57863613  0.77860856  0.01516126    -0.07200
C2872       C  0.57964470  0.79323522  0.54423386    -0.08000
C2873       C  0.59893641  0.80945195  0.55896155    -0.02500
C2874       C  0.61767712  0.81073022  0.54413325     0.04300
N2875       N  0.63773775  0.82783666  0.55620908     0.66800
H2876       H  0.63138581  0.79754600  0.50303526     0.15700
H2877       H  0.56515739  0.79190361  0.55584264     0.15400
N2878       N  0.55847081  0.76218856  0.00189872     0.74500
O2879       O  0.64826782  0.82535112  0.58517748    -0.39000
O2880       O  0.64336868  0.84603254  0.54277084    -0.38900
O2881       O  0.54828878  0.74671604  0.02649158    -0.39600
O2882       O  0.54884572  0.76576790  0.97263104    -0.39700
C2883       C  0.61688356  0.82060608  0.77154174    -0.12000
C2884       C  0.59822130  0.81659653  0.75115921     0.05100
C2885       C  0.57917930  0.79846601  0.76296707    -0.07200
C2886       C  0.57932819  0.78429773  0.79257788    -0.08000
C2887       C  0.59803721  0.78800540  0.81186731    -0.02500
C2888       C  0.61694567  0.80662897  0.80179231     0.04300
N2889       N  0.63648232  0.81136914  0.82104456     0.66800
H2890       H  0.63163575  0.83437546  0.76320821     0.15700
H2891       H  0.56465245  0.77041944  0.80079511     0.15400
N2892       N  0.55940409  0.79428365  0.74612598     0.74500
O2893       O  0.64671066  0.80320572  0.80651052    -0.39000
O2894       O  0.64243261  0.82200592  0.85513320    -0.38900
O2895       O  0.55049855  0.78026040  0.71796594    -0.39600
O2896       O  0.54858163  0.80001056  0.76740220    -0.39700
C2897       C  0.78625617  0.98315782  0.88001063    -0.12000
C2898       C  0.76494324  0.97462240  0.89042256     0.05100
C2899       C  0.75493234  0.98616724  0.88121351    -0.07200
C2900       C  0.76619867  0.00576561  0.86183933    -0.08000
C2901       C  0.78734023  0.01419390  0.85027970    -0.02500
C2902       C  0.79748137  0.00271182  0.85957971     0.04300
N2903       N  0.81913276  0.01074321  0.84953887     0.66800
H2904       H  0.79411258  0.97437247  0.88680186     0.15700
H2905       H  0.75813316  0.01436916  0.85524894     0.15400
N2906       N  0.73339544  0.97843446  0.89198223     0.74500
O2907       O  0.83276735  0.02029519  0.87819710    -0.39000
O2908       O  0.82387569  0.00355716  0.81741472    -0.38900
O2909       O  0.72902455  0.98556927  0.92471508    -0.39600
O2910       O  0.71950332  0.96908044  0.86368108    -0.39700
C2911       C  0.71447116  0.84141084  0.56468774    -0.12000
C2912       C  0.73330512  0.84531502  0.58408535     0.05100
C2913       C  0.75229146  0.86338429  0.57171571    -0.07200
C2914       C  0.75197761  0.87726453  0.54148791    -0.08000
C2915       C  0.73308107  0.87356034  0.52310563    -0.02500
C2916       C  0.71418328  0.85536919  0.53480472     0.04300
N2917       N  0.69437109  0.85156022  0.51883855     0.66800
H2918       H  0.69969206  0.82789254  0.57403322     0.15700
H2919       H  0.76661812  0.89100512  0.53236322     0.15400
N2920       N  0.77206998  0.86804439  0.58939777     0.74500
O2921       O  0.68567063  0.83894675  0.48818660    -0.39000
O2922       O  0.68710661  0.86292588  0.53121910    -0.38900
O2923       O  0.78341165  0.86269365  0.56892815    -0.39600
O2924       O  0.78038152  0.88202024  0.61783614    -0.39700
C2925       C  0.72103189  0.87417831  0.80299946    -0.12000
C2926       C  0.73682192  0.88191097  0.83422139     0.05100
C2927       C  0.75241917  0.87607365  0.83248285    -0.07200
C2928       C  0.75130178  0.86202812  0.80096717    -0.08000
C2929       C  0.73501849  0.85373164  0.77067831    -0.02500
C2930       C  0.72000418  0.86033546  0.77140719     0.04300
N2931       N  0.70354479  0.85327779  0.74037622     0.66800
H2932       H  0.70911933  0.87867661  0.80329749     0.15700
H2933       H  0.76301568  0.85727625  0.80085417     0.15400
N2934       N  0.76916101  0.88366726  0.86295974     0.74500
O2935       O  0.68531857  0.83894200  0.75050344    -0.39000
O2936       O  0.70583462  0.86481369  0.70853974    -0.38900
O2937       O  0.76774364  0.87222045  0.89435875    -0.39600
O2938       O  0.78697890  0.89865936  0.85249944    -0.39700
C2939       C  0.64670675  0.89593610  0.52716327    -0.12000
C2940       C  0.65103839  0.89620310  0.57128073     0.05100
C2941       C  0.67222988  0.90649979  0.58455796    -0.07200
C2942       C  0.68831802  0.91401254  0.55390187    -0.08000
C2943       C  0.68384038  0.91145751  0.50974069    -0.02500
C2944       C  0.66285955  0.90344129  0.49644630     0.04300
N2945       N  0.65736345  0.90219378  0.95233042     0.66800
H2946       H  0.63066792  0.88870510  0.51613158     0.15700
H2947       H  0.70430200  0.92062464  0.56496864     0.15400
N2948       N  0.67783360  0.90864884  0.62891684     0.74500
O2949       O  0.65079332  0.88513023  0.93254355    -0.39000
O2950       O  0.65415610  0.91607933  0.93655380    -0.38900
O2951       O  0.68426472  0.89715440  0.64474356    -0.39600
O2952       O  0.68160220  0.92514679  0.64838479    -0.39700
loop_ 
_geom_bond_atom_site_label_1 
_geom_bond_atom_site_label_2 
_geom_bond_distance 
_geom_bond_site_symmetry_2 
_ccdc_geom_bond_type 
In1           O3   2.218       .  S
In1           O4   2.258       .  S
In1          O12   2.212       .  S
In1           O6   2.246       .  S
In1           O8   2.245       .  S
In1           O9   2.223       .  S
In1          O10   2.195       .  S
In1          O13   2.236       .  S
C2            O8   1.271       .  A
C2           O10   1.261       .  A
C2         C2915   1.476       .  S
O3           C11   1.264       .  A
O4           C11   1.269       .  A
C5           O12   1.261       .  A
C5            O6   1.267       .  A
C5         C1422   1.473       .  S
C7            O9   1.268       .  A
C7           O13   1.261       .  A
C7         C1450   1.479       .  S
C11        C2943   1.485       .  S
In14         O16   2.234       .  S
In14         O17   2.254       .  S
In14         O25   2.220       .  S
In14         O19   2.262       .  S
In14         O21   2.254       .  S
In14         O22   2.245       .  S
In14         O23   2.207       .  S
In14         O26   2.231       .  S
C15          O21   1.270       .  A
C15          O23   1.260       .  A
C15        C1397   1.477       .  S
O16          C24   1.265       .  A
O17          C24   1.268       .  A
C18          O25   1.262       .  A
C18          O19   1.266       .  A
C18        C1380   1.478       .  S
C20          O22   1.267       .  A
C20          O26   1.260       .  A
C20        C1408   1.483       .  S
C24        C1464   1.489       .  S
In27         O29   2.230       .  S
In27         O30   2.227       .  S
In27         O38   2.229       .  S
In27         O32   2.245       .  S
In27         O34   2.246       .  S
In27         O35   2.247       .  S
In27         O36   2.208       .  S
In27         O39   2.232       .  S
C28          O34   1.271       .  A
C28          O36   1.260       .  A
C28        C1453   1.480       .  S
O29          C37   1.264       .  A
O30          C37   1.269       .  A
C31          O38   1.262       .  A
C31          O32   1.267       .  A
C31        C1355   1.472       .  S
C33          O35   1.268       .  A
C33          O39   1.262       .  A
C33        C1369   1.483       .  S
C37        C1436   1.482       .  S
In40         O42   2.239       .  S
In40         O43   2.248       .  S
In40         O51   2.198       .  S
In40         O45   2.278       .  S
In40         O47   2.248       .  S
In40         O48   2.235       .  S
In40         O49   2.194       .  S
In40         O52   2.251       .  S
C41          O47   1.272       .  A
C41          O49   1.259       .  A
C41        C1411   1.478       .  S
O42          C50   1.263       .  A
O43          C50   1.267       .  A
C44          O51   1.262       .  A
C44          O45   1.269       .  A
C44        C1338   1.486       .  S
C46          O48   1.268       .  A
C46          O52   1.264       .  A
C46        C1366   1.489       .  S
C50        C1394   1.487       .  S
In53         O55   2.253       .  S
In53         O56   2.240       .  S
In53         O64   2.240       .  S
In53         O58   2.245       .  S
In53         O60   2.249       .  S
In53         O61   2.240       .  S
In53         O62   2.212       .  S
In53         O65   2.212       .  S
C54          O60   1.270       .  A
C54          O62   1.261       .  A
C54        C1296   1.483       .  S
O55          C63   1.262       .  A
O56          C63   1.267       .  A
C57          O64   1.261       .  A
C57          O58   1.267       .  A
C57        C1285   1.478       .  S
C59          O61   1.268       .  A
C59          O65   1.263       .  A
C59        C2786   1.478   1_554  S
C63        C1324   1.489       .  S
In66         O68   2.249       .  S
In66         O69   2.242       .  S
In66         O77   2.199       .  S
In66         O71   2.273       .  S
In66         O73   2.259       .  S
In66         O74   2.255       .  S
In66         O75   2.186       .  S
In66         O78   2.217       .  S
C67          O73   1.272       .  A
C67          O75   1.262       .  A
C67        C1257   1.480       .  S
O68          C76   1.264       .  A
O69          C76   1.267       .  A
C70          O77   1.261       .  A
C70          O71   1.267       .  A
C70        C1425   1.478       .  S
C72          O74   1.267       .  A
C72          O78   1.262       .  A
C72        C1271   1.475       .  S
C76        C1327   1.489       .  S
In79         O81   2.207       .  S
In79         O82   2.264       .  S
In79         O90   2.215       .  S
In79         O84   2.273       .  S
In79         O86   2.266   1_554  S
In79         O87   2.247       .  S
In79         O88   2.191       .  S
In79         O91   2.246   1_554  S
C80          O86   1.270       .  A
C80          O88   1.260   1_556  A
C80        C2744   1.478       .  S
O81          C89   1.261       .  A
O82          C89   1.267       .  A
C83          O90   1.261       .  A
C83          O84   1.265       .  A
C83        C1229   1.479       .  S
C85          O87   1.267   1_556  A
C85          O91   1.263       .  A
C85        C2716   1.487       .  S
C89        C1254   1.479       .  S
In92         O94   2.249       .  S
In92         O95   2.234       .  S
In92        O103   2.218       .  S
In92         O97   2.265       .  S
In92         O99   2.262       .  S
In92        O100   2.250       .  S
In92        O101   2.185       .  S
In92        O104   2.258       .  S
C93          O99   1.270       .  A
C93         O101   1.260       .  A
C93        C1313   1.478       .  S
O94         C102   1.262       .  A
O95         C102   1.266       .  A
C96         O103   1.261       .  A
C96          O97   1.266       .  A
C96        C1212   1.485       .  S
C98         O100   1.266       .  A
C98         O104   1.263       .  A
C98        C1243   1.494       .  S
C102       C1299   1.485       .  S
In105       O110   2.244       .  S
In105       O112   2.241       .  S
In105       O113   2.221       .  S
In105       O114   2.208       .  S
In105       O117   2.233       .  S
In105      O1583   2.234   1_554  S
In105      O1584   2.236   1_554  S
In105      O1592   2.240   1_554  S
C106        O112   1.273       .  A
C106        O114   1.263       .  A
C106       C1184   1.475       .  S
O107      In1581   2.233       .  S
O107        C115   1.262       .  A
O108      In1581   2.233       .  S
O108        C115   1.268       .  A
C109        O116   1.262       .  A
C109       O1586   1.269       .  A
C109       C1159   1.489       .  S
O110       C1585   1.269   1_554  A
C111        O113   1.270       .  A
C111        O117   1.264       .  A
C111       C1198   1.481       .  S
C115       C1170   1.476       .  S
O116      In1581   2.240       .  S
In118       O120   2.216       .  S
In118       O121   2.264       .  S
In118       O129   2.232       .  S
In118       O123   2.247       .  S
In118       O125   2.278       .  S
In118       O126   2.218       .  S
In118       O127   2.195       .  S
In118       O130   2.237       .  S
C119        O125   1.270       .  A
C119        O127   1.260       .  A
C119       C1142   1.484       .  S
O120        C128   1.262       .  A
O121        C128   1.265       .  A
C122        O129   1.260       .  A
C122        O123   1.266       .  A
C122       C1114   1.477       .  S
C124        O126   1.266       .  A
C124        O130   1.263       .  A
C124       C1201   1.479       .  S
C128       C1128   1.484       .  S
In131       O133   2.257       .  S
In131       O134   2.228       .  S
In131       O142   2.226       .  S
In131       O136   2.255       .  S
In131       O138   2.256       .  S
In131       O139   2.222       .  S
In131       O140   2.217       .  S
In131       O143   2.250       .  S
C132        O138   1.271       .  A
C132        O140   1.259       .  A
C132       C1173   1.480       .  S
O133        C141   1.263       .  A
O134        C141   1.266       .  A
C135        O142   1.260       .  A
C135        O136   1.268       .  A
C135       C1383   1.484       .  S
C137        O139   1.266       .  A
C137        O143   1.263       .  A
C137       C1187   1.482       .  S
C141       C1100   1.487       .  S
In144       O146   2.229       .  S
In144       O147   2.249       .  S
In144       O149   2.244       .  S
In144       O151   2.255       .  S
In144       O153   2.203       .  S
In144      O1631   2.225       .  S
In144      O1628   2.242       .  S
In144      O1632   2.214       .  S
C145        O151   1.271       .  A
C145        O153   1.263       .  A
C145       C1131   1.483       .  S
O146        C154   1.262       .  A
O147        C154   1.269       .  A
C148        O155   1.261       .  A
C148       O1625   1.268   1_554  A
C148       C1282   1.473       .  S
O149       C1624   1.268       .  A
C150        O152   1.270       .  A
C150        O156   1.264       .  A
C150       C1145   1.480       .  S
O152      In1620   2.244   1_554  S
C154       C1103   1.482       .  S
O155      In1620   2.226   1_554  S
O156      In1620   2.213   1_554  S
In157       O159   2.229       .  S
In157       O160   2.235       .  S
In157       O168   2.236       .  S
In157       O162   2.245       .  S
In157       O164   2.285       .  S
In157       O165   2.252       .  S
In157       O166   2.186       .  S
In157       O169   2.240       .  S
C158        O164   1.268   1_556  A
C158        O166   1.259   1_556  A
C158       C2534   1.481       .  S
O159        C167   1.262       .  A
O160        C167   1.265       .  A
C161        O168   1.260       .  A
C161        O162   1.265       .  A
C161       C1352   1.479       .  S
C163        O165   1.263       .  A
C163        O169   1.262       .  A
C163       C2562   1.488   1_554  S
C167       C1072   1.477       .  S
In170       O172   2.225       .  S
In170       O173   2.228       .  S
In170       O181   2.203       .  S
In170       O175   2.271       .  S
In170       O177   2.265       .  S
In170       O178   2.261       .  S
In170       O179   2.206       .  S
In170       O182   2.224       .  S
C171        O177   1.273       .  A
C171        O179   1.263       .  A
C171       C1044   1.486       .  S
O172        C180   1.263       .  A
O173        C180   1.269       .  A
C174        O181   1.262       .  A
C174        O175   1.270       .  A
C174       C1016   1.484       .  S
C176        O178   1.268       .  A
C176        O182   1.265       .  A
C176       C1089   1.483       .  S
C180       C1030   1.480       .  S
In183       O185   2.249       .  S
In183       O186   2.232       .  S
In183       O194   2.236       .  S
In183       O188   2.248       .  S
In183       O190   2.281       .  S
In183       O191   2.232       .  S
In183       O192   2.189       .  S
In183       O195   2.225       .  S
C184        O190   1.270       .  A
C184        O192   1.259       .  A
C184       C1075   1.480       .  S
O185        C193   1.261       .  A
O186        C193   1.264       .  A
C187        O194   1.259       .  A
C187        O188   1.266       .  A
C187        C988   1.476       .  S
C189        O191   1.265       .  A
C189        O195   1.265       .  A
C189       C1061   1.480       .  S
C193       C1002   1.484       .  S
In196       O198   2.234       .  S
In196       O199   2.243       .  S
In196       O207   2.236       .  S
In196       O201   2.268       .  S
In196       O203   2.236       .  S
In196       O204   2.269       .  S
In196       O205   2.223       .  S
In196       O208   2.206       .  S
C197        O203   1.270       .  A
C197        O205   1.261       .  A
C197       C1033   1.480       .  S
O198        C206   1.263       .  A
O199        C206   1.270       .  A
C200        O207   1.263       .  A
C200        O201   1.265       .  A
C200        C974   1.484       .  S
C202        O204   1.269       .  A
C202        O208   1.261       .  A
C202       C1047   1.486   1_554  S
C206       C1005   1.484       .  S
In209       O211   2.223       .  S
In209       O212   2.248       .  S
In209       O220   2.241       .  S
In209       O214   2.241       .  S
In209       O216   2.280       .  S
In209       O217   2.238       .  S
In209       O218   2.196       .  S
In209       O221   2.230       .  S
C210        O216   1.270       .  A
C210        O218   1.261       .  A
C210        C932   1.486       .  S
O211        C219   1.264       .  A
O212        C219   1.267       .  A
C213        O220   1.261       .  A
C213        O214   1.267       .  A
C213        C918   1.482       .  S
C215        O217   1.267       .  A
C215        O221   1.261       .  A
C215        C949   1.482       .  S
C219        C963   1.484       .  S
In222       O224   2.212       .  S
In222       O225   2.250       .  S
In222       O227   2.249       .  S
In222       O229   2.288       .  S
In222       O231   2.214       .  S
In222      O1709   2.242       .  S
In222      O1706   2.252       .  S
In222      O1710   2.210       .  S
C223        O229   1.271       .  A
C223        O231   1.262       .  A
C223        C890   1.493       .  S
O224        C232   1.264       .  A
O225        C232   1.268       .  A
C226        O233   1.262       .  A
C226       O1703   1.268   1_554  A
C226        C879   1.489       .  S
O227       C1702   1.268       .  A
C228        O230   1.268       .  A
C228        O234   1.262       .  A
C228        C904   1.480       .  S
O230      In1698   2.252   1_554  S
C232        C960   1.480       .  S
O233      In1698   2.242   1_554  S
O234      In1698   2.210   1_554  S
In235       O240   2.246       .  S
In235       O242   2.239       .  S
In235       O243   2.241       .  S
In235       O244   2.227       .  S
In235       O247   2.212       .  S
In235      O1713   2.209   1_554  S
In235      O1714   2.249   1_554  S
In235      O1722   2.235   1_554  S
C236        O242   1.271       .  A
C236        O244   1.261       .  A
C236        C946   1.483       .  S
O237      In1711   2.209       .  S
O237        C245   1.261       .  A
O238      In1711   2.249       .  S
O238        C245   1.269       .  A
C239        O246   1.263       .  A
C239       O1716   1.266       .  A
C239       C1341   1.476       .  S
O240       C1715   1.266   1_554  A
C241        O243   1.270       .  A
C241        O247   1.263       .  A
C241        C862   1.483       .  S
C245        C935   1.482       .  S
O246      In1711   2.235       .  S
In248       O250   2.234       .  S
In248       O251   2.265       .  S
In248       O259   2.243       .  S
In248       O253   2.251       .  S
In248       O255   2.271       .  S
In248       O256   2.250       .  S
In248       O257   2.193       .  S
In248       O260   2.246       .  S
C249        O255   1.270       .  A
C249        O257   1.260       .  A
C249        C907   1.482       .  S
O250        C258   1.262       .  A
O251        C258   1.268       .  A
C252        O259   1.262       .  A
C252        O253   1.265       .  A
C252       C1019   1.482       .  S
C254        O256   1.268       .  A
C254        O260   1.263       .  A
C254        C865   1.492       .  S
C258        C893   1.492       .  S
In261       O263   2.250       .  S
In261       O264   2.236       .  S
In261       O272   2.220       .  S
In261       O266   2.284       .  S
In261       O268   2.248       .  S
In261       O269   2.268       .  S
In261       O270   2.219       .  S
In261       O273   2.198       .  S
C262        O268   1.271       .  A
C262        O270   1.261       .  A
C262        C820   1.479       .  S
O263        C271   1.265       .  A
O264        C271   1.269       .  A
C265        O272   1.263       .  A
C265        O266   1.267       .  A
C265        C809   1.489       .  S
C267        O269   1.268       .  A
C267        O273   1.261       .  A
C267        C834   1.481       .  S
C271        C848   1.492       .  S
In274       O276   2.239       .  S
In274       O277   2.257       .  S
In274       O285   2.231       .  S
In274       O279   2.244       .  S
In274       O281   2.220       .  S
In274       O282   2.218       .  S
In274       O283   2.209       .  S
In274       O286   2.225       .  S
C275        O281   1.271       .  A
C275        O283   1.262       .  A
C275       C2254   1.473       .  S
O276        C284   1.262       .  A
O277        C284   1.268       .  A
C278        O285   1.262       .  A
C278        O279   1.266       .  A
C278        C991   1.476       .  S
C280        O282   1.271       .  A
C280        O286   1.263       .  A
C280        C792   1.476       .  S
C284       C2327   1.490       .  S
In287       O289   2.225       .  S
In287       O290   2.245       .  S
In287       O298   2.229       .  S
In287       O292   2.249       .  S
In287       O294   2.252       .  S
In287       O295   2.230       .  S
In287       O296   2.198       .  S
In287       O299   2.245       .  S
C288        O294   1.272       .  A
C288        O296   1.261       .  A
C288        C837   1.481       .  S
O289        C297   1.262       .  A
O290        C297   1.269       .  A
C291        O298   1.262       .  A
C291        O292   1.267       .  A
C291       C1156   1.472       .  S
C293        O295   1.269       .  A
C293        O299   1.264       .  A
C293        C767   1.485       .  S
C297       C2299   1.484       .  S
In300       O302   2.224       .  S
In300       O303   2.222       .  S
In300       O311   2.230       .  S
In300       O305   2.239       .  S
In300       O307   2.235       .  S
In300       O308   2.230       .  S
In300       O309   2.213       .  S
In300       O312   2.226       .  S
C301        O307   1.271       .  A
C301        O309   1.261       .  A
C301        C795   1.478       .  S
O302        C310   1.261       .  A
O303        C310   1.267       .  A
C304        O311   1.262       .  A
C304        O305   1.267       .  A
C304        C753   1.477       .  S
C306        O308   1.268       .  A
C306        O312   1.263       .  A
C306        C764   1.483       .  S
C310        C781   1.473       .  S
In313       O315   2.215       .  S
In313       O316   2.239       .  S
In313       O324   2.236       .  S
In313       O318   2.260       .  S
In313       O320   2.258       .  S
In313       O321   2.238       .  S
In313       O322   2.215       .  S
In313       O325   2.244       .  S
C314        O320   1.272       .  A
C314        O322   1.260       .  A
C314        C722   1.485       .  S
O315        C323   1.264       .  A
O316        C323   1.268       .  A
C317        O324   1.260       .  A
C317        O318   1.267       .  A
C317        C694   1.477       .  S
C319        O321   1.267       .  A
C319        O325   1.262       .  A
C319        C736   1.486       .  S
C323        C711   1.479       .  S
In326       O328   2.211       .  S
In326       O329   2.258       .  S
In326       O337   2.229       .  S
In326       O331   2.246       .  S
In326       O333   2.264       .  S
In326       O334   2.231       .  S
In326       O335   2.208       .  S
In326       O338   2.237       .  S
C327        O333   1.271       .  A
C327        O335   1.261       .  A
C327        C683   1.485       .  S
O328        C336   1.262       .  A
O329        C336   1.268       .  A
C330        O337   1.262       .  A
C330        O331   1.268       .  A
C330       C1226   1.483       .  S
C332        O334   1.268       .  A
C332        O338   1.263       .  A
C332        C739   1.482       .  S
C336        C669   1.482       .  S
In339       O341   2.221       .  S
In339       O342   2.269       .  S
In339       O350   2.226       .  S
In339       O344   2.264       .  S
In339       O346   2.276       .  S
In339       O347   2.235       .  S
In339       O348   2.195       .  S
In339       O351   2.241       .  S
C340        O346   1.269       .  A
C340        O348   1.259       .  A
C340        C708   1.483       .  S
O341        C349   1.264       .  A
O342        C349   1.266       .  A
C343        O350   1.261       .  A
C343        O344   1.265       .  A
C343        C921   1.479       .  S
C345        O347   1.266       .  A
C345        O351   1.260       .  A
C345        C725   1.483       .  S
C349        C655   1.487       .  S
In352       O354   2.223       .  S
In352       O355   2.247       .  S
In352       O363   2.220       .  S
In352       O357   2.239       .  S
In352       O359   2.266       .  S
In352       O360   2.255       .  S
In352       O361   2.191       .  S
In352       O364   2.220       .  S
C353        O359   1.270       .  A
C353        O361   1.262       .  A
C353       C2142   1.481       .  S
O354        C362   1.264       .  A
O355        C362   1.268       .  A
C356        O363   1.261       .  A
C356        O357   1.266       .  A
C356        C638   1.471       .  S
C358        O360   1.268       .  A
C358        O364   1.261       .  A
C358        C680   1.479       .  S
C362       C2128   1.483       .  S
In365       O367   2.214       .  S
In365       O368   2.259       .  S
In365       O376   2.199       .  S
In365       O370   2.252       .  S
In365       O372   2.255       .  S
In365       O373   2.208       .  S
In365       O374   2.189       .  S
In365       O377   2.239       .  S
C366        O372   1.271       .  A
C366        O374   1.261       .  A
C366        C596   1.477       .  S
O367        C375   1.265       .  A
O368        C375   1.267       .  A
C369        O376   1.262       .  A
C369        O370   1.268       .  A
C369        C641   1.472       .  S
C371        O373   1.268       .  A
C371        O377   1.262       .  A
C371        C613   1.478       .  S
C375        C627   1.483       .  S
In378       O380   2.227       .  S
In378       O381   2.246       .  S
In378       O389   2.238       .  S
In378       O383   2.272       .  S
In378       O385   2.273       .  S
In378       O386   2.264       .  S
In378       O387   2.218       .  S
In378       O390   2.194       .  S
C379        O385   1.270       .  A
C379        O387   1.260       .  A
C379        C568   1.485       .  S
O380        C388   1.265       .  A
O381        C388   1.268       .  A
C382        O389   1.262       .  A
C382        O383   1.265       .  A
C382        C876   1.484       .  S
C384        O386   1.267       .  A
C384        O390   1.260       .  A
C384        C582   1.476       .  S
C388        C624   1.487       .  S
In391       O393   2.206       .  S
In391       O394   2.263       .  S
In391       O402   2.217       .  S
In391       O396   2.268       .  S
In391       O398   2.243       .  S
In391       O399   2.250       .  S
In391       O400   2.204       .  S
In391       O403   2.240       .  S
C392       O1874   1.270       .  A
C392       O1876   1.260       .  A
C392        C610   1.477       .  S
O393        C401   1.260       .  A
O394        C401   1.267       .  A
C395        O402   1.262       .  A
C395        O396   1.265       .  A
C395        C750   1.480       .  S
C397        O399   1.269       .  A
C397        O403   1.263       .  A
C397       C2030   1.492   1_554  S
O398       C1868   1.270       .  A
O400       C1868   1.260       .  A
C401        C599   1.476       .  S
In404       O406   2.246       .  S
In404       O407   2.222       .  S
In404       O415   2.208       .  S
In404       O409   2.257       .  S
In404       O411   2.255       .  S
In404       O412   2.246       .  S
In404       O413   2.191       .  S
In404       O416   2.232       .  S
C405        O411   1.272       .  A
C405        O413   1.261       .  A
C405        C585   1.479       .  S
O406        C414   1.264       .  A
O407        C414   1.268       .  A
C408        O415   1.263       .  A
C408        O409   1.269       .  A
C408       C1117   1.481       .  S
C410        O412   1.268       .  A
C410        O416   1.264       .  A
C410        C557   1.488       .  S
C414        C571   1.485       .  S
In417       O419   2.247       .  S
In417       O420   2.225       .  S
In417       O428   2.220       .  S
In417       O422   2.258       .  S
In417       O424   2.262       .  S
In417       O425   2.230       .  S
In417       O426   2.228       .  S
In417       O429   2.213       .  S
C418        O424   1.272       .  A
C418        O426   1.260       .  A
C418        C526   1.486       .  S
O419        C427   1.262       .  A
O420        C427   1.266       .  A
C421        O428   1.261       .  A
C421        O422   1.269       .  A
C421       C1215   1.477       .  S
C423        O425   1.269       .  A
C423        O429   1.266       .  A
C423        C543   1.480       .  S
C427        C512   1.479       .  S
In430       O435   2.243       .  S
In430       O437   2.289       .  S
In430       O438   2.263       .  S
In430       O439   2.209       .  S
In430       O442   2.225       .  S
In430      O1908   2.210   1_554  S
In430      O1909   2.249   1_554  S
In430      O1917   2.245   1_554  S
C431        O437   1.268       .  A
C431        O439   1.261       .  A
C431        C501   1.491       .  S
O432      In1906   2.210       .  S
O432        C440   1.262       .  A
O433      In1906   2.249       .  S
O433        C440   1.267       .  A
C434        O441   1.261       .  A
C434       O1911   1.266       .  A
C434        C697   1.484       .  S
O435       C1910   1.266   1_554  A
C436        O438   1.265       .  A
C436        O442   1.262       .  A
C436        C540   1.485       .  S
C440        C484   1.479       .  S
O441      In1906   2.246       .  S
In443       O445   2.252       .  S
In443       O446   2.232       .  S
In443       O448   2.258       .  S
In443       O450   2.252       .  S
In443       O452   2.213       .  S
In443      O1930   2.231       .  S
In443      O1927   2.238       .  S
In443      O1931   2.240       .  S
C444        O450   1.273       .  A
C444        O452   1.261       .  A
C444        C515   1.478       .  S
O445        C453   1.266       .  A
O446        C453   1.269       .  A
C447        O454   1.263       .  A
C447       O1924   1.270   1_554  A
C447        C977   1.490       .  S
O448       C1923   1.270       .  A
C449        O451   1.269       .  A
C449        O455   1.263       .  A
C449        C529   1.487       .  S
O451      In1919   2.238   1_554  S
C453        C470   1.489       .  S
O454      In1919   2.231   1_554  S
O455      In1919   2.240   1_554  S
In456       O458   2.253       .  S
In456       O459   2.231       .  S
In456       O467   2.221       .  S
In456       O461   2.265       .  S
In456       O463   2.280       .  S
In456       O464   2.257       .  S
In456       O465   2.186       .  S
In456       O468   2.241       .  S
C457        O463   1.272       .  A
C457        O465   1.261       .  A
C457        C487   1.484       .  S
O458        C466   1.264       .  A
O459        C466   1.267       .  A
C460        O467   1.260       .  A
C460        O461   1.269       .  A
C460        C806   1.484       .  S
C462        O464   1.267       .  A
C462        O468   1.264       .  A
C462        C498   1.489       .  S
C466        C473   1.487       .  S
C469        C470   1.405   1_455  A
C469        C474   1.402       .  A
C469        H476   1.081       .  S
C470        C471   1.415       .  A
C471        C472   1.401   1_655  A
C471        N478   1.428       .  S
C472        C473   1.403       .  A
C472        H477   1.081   1_455  S
C473        C474   1.414       .  A
C474        N475   1.429       .  S
N475        O479   1.262       .  A
N475        O480   1.262       .  A
N478        O482   1.262       .  A
N478        O481   1.262       .  A
C483        C484   1.407       .  A
C483        C488   1.401       .  A
C483        H490   1.081       .  S
C484        C485   1.408       .  A
C485        C486   1.396       .  A
C485        N492   1.429       .  S
C486        C487   1.409       .  A
C486        H491   1.081       .  S
C487        C488   1.411       .  A
C488        N489   1.428       .  S
N489        O493   1.262       .  A
N489        O494   1.262       .  A
N492        O496   1.262       .  A
N492        O495   1.262       .  A
C497        C498   1.408       .  A
C497        C502   1.407       .  A
C497        H504   1.087       .  S
C498        C499   1.410       .  A
C499        C500   1.397       .  A
C499        N506   1.428       .  S
C500        C501   1.406       .  A
C500        H505   1.087       .  S
C501        C502   1.415       .  A
C502        N503   1.429       .  S
N503        O507   1.262       .  A
N503        O508   1.262       .  A
N506        O510   1.262       .  A
N506        O509   1.262       .  A
C511        C512   1.401       .  A
C511        C516   1.395       .  A
C511        H518   1.085       .  S
C512        C513   1.415       .  A
C513        C514   1.403       .  A
C513        N520   1.429       .  S
C514        C515   1.402       .  A
C514        H519   1.085       .  S
C515        C516   1.413       .  A
C516        N517   1.429       .  S
N517        O521   1.262       .  A
N517        O522   1.262       .  A
N520        O524   1.262       .  A
N520        O523   1.262       .  A
C525        C526   1.402       .  A
C525        C530   1.404       .  A
C525        H532   1.081       .  S
C526        C527   1.416       .  A
C527        C528   1.400       .  A
C527        N534   1.430       .  S
C528        C529   1.402       .  A
C528        H533   1.081       .  S
C529        C530   1.416       .  A
C530        N531   1.428       .  S
N531        O535   1.262       .  A
N531        O536   1.262       .  A
N534        O538   1.262       .  A
N534        O537   1.262       .  A
C539        C540   1.407       .  A
C539        C544   1.399   1_455  A
C539        H546   1.081       .  S
C540        C541   1.412   1_455  A
C541        C542   1.401       .  A
C541        N548   1.429       .  S
C542        C543   1.406       .  A
C542        H547   1.081       .  S
C543        C544   1.410       .  A
C544        N545   1.429   1_655  S
N545        O549   1.262       .  A
N545        O550   1.262       .  A
N548        O552   1.262       .  A
N548        O551   1.262       .  A
C553       C2030   1.405   1_554  A
C553       C2034   1.404   1_554  A
C553        H560   1.084       .  S
C554       C1873   1.492       .  S
C554        C555   1.418       .  A
C554       C2029   1.405       .  A
C555        C556   1.403       .  A
C555        N562   1.429       .  S
C556        C557   1.402       .  A
C556        H561   1.083       .  S
C557        C558   1.415       .  A
C558       C2029   1.404       .  A
C558        N559   1.429       .  S
N559       O2039   1.262       .  A
N559        O564   1.262       .  A
N562        O566   1.262       .  A
N562        O565   1.262       .  A
O563       N2035   1.262   1_554  A
C567        C568   1.405       .  A
C567        C572   1.408       .  A
C567        H574   1.082       .  S
C568        C569   1.414       .  A
C569        C570   1.395       .  A
C569        N576   1.429       .  S
C570        C571   1.400       .  A
C570        H575   1.082       .  S
C571        C572   1.417       .  A
C572        N573   1.429       .  S
N573        O577   1.262       .  A
N573        O578   1.262       .  A
N576        O580   1.262       .  A
N576        O579   1.262       .  A
C581        C582   1.405       .  A
C581       C2062   1.394   1_554  A
C581        H588   1.087       .  S
C582       C2059   1.409   1_554  A
C583        C584   1.399       .  A
C583       C2058   1.409       .  A
C583        N590   1.429       .  S
C584        C585   1.409       .  A
C584        H589   1.087       .  S
C585        C586   1.408       .  A
C586       C2057   1.394       .  A
C586       N2063   1.427       .  S
N587       C2062   1.427       .  S
N587        O591   1.262       .  A
N587       O2068   1.262   1_556  A
N590        O594   1.262       .  A
N590        O593   1.262       .  A
O592       N2063   1.262       .  A
C595        C596   1.407       .  A
C595        C600   1.397       .  A
C595        H602   1.087       .  S
C596        C597   1.408       .  A
C597        C598   1.397       .  A
C597        N604   1.428       .  S
C598        C599   1.406       .  A
C598        H603   1.087       .  S
C599        C600   1.408       .  A
C600        N601   1.428       .  S
N601        O605   1.262       .  A
N601        O606   1.262       .  A
N604        O608   1.262       .  A
N604        O607   1.262       .  A
C609        C610   1.402       .  A
C609        C614   1.401       .  A
C609        H616   1.084       .  S
C610        C611   1.414       .  A
C611        C612   1.391       .  A
C611       N2094   1.429       .  S
C612        C613   1.400       .  A
C612        H617   1.084       .  S
C613        C614   1.416       .  A
C614        N615   1.429       .  S
N615        O619   1.262       .  A
N615        O620   1.262       .  A
N618       C2087   1.429       .  S
N618        O622   1.262   1_556  A
N618        O621   1.262       .  A
C623        C624   1.409       .  A
C623        C628   1.404       .  A
C623        H630   1.079       .  S
C624        C625   1.411       .  A
C625        C626   1.398       .  A
C625        N632   1.428       .  S
C626        C627   1.405       .  A
C626        H631   1.080       .  S
C627        C628   1.411       .  A
C628        N629   1.429       .  S
N629        O633   1.262       .  A
N629        O634   1.262       .  A
N632        O636   1.262       .  A
N632        O635   1.262       .  A
C637        C638   1.402       .  A
C637        C642   1.400       .  A
C637        H644   1.086       .  S
C638        C639   1.411       .  A
C639        C640   1.394       .  A
C639        N646   1.429       .  S
C640        C641   1.402       .  A
C640        H645   1.086       .  S
C641        C642   1.411       .  A
C642        N643   1.428       .  S
N643        O647   1.262       .  A
N643        O648   1.262       .  A
N646        O650   1.262       .  A
N646        O649   1.262       .  A
C651        C652   1.406       .  A
C651        C656   1.403       .  A
C651        H658   1.080       .  S
C652       C1838   1.483   1_554  S
C652        C653   1.409       .  A
C653        C654   1.399       .  A
C653       N2136   1.428   1_554  S
C654        C655   1.406       .  A
C654        H659   1.080       .  S
C655        C656   1.414       .  A
C656        N657   1.429       .  S
N657        O661   1.262       .  A
N657        O662   1.262       .  A
N660       C2129   1.428       .  S
N660        O664   1.262       .  A
N660        O663   1.262       .  A
C665        C666   1.406       .  A
C665        C670   1.396       .  A
C665       H2148   1.087       .  S
C666       C1829   1.481   1_554  S
C666        C667   1.410       .  A
C667        C668   1.400       .  A
C667        N674   1.428       .  S
C668        C669   1.407       .  A
C668        H673   1.087       .  S
C669        C670   1.410       .  A
C670        N671   1.428       .  S
N671       O2151   1.262       .  A
N671        O676   1.262       .  A
H672       C2141   1.087       .  S
N674        O678   1.262       .  A
N674        O677   1.262       .  A
O675       N2147   1.262       .  A
C679        C680   1.399       .  A
C679        C684   1.401       .  A
C679        H686   1.088       .  S
C680        C681   1.414       .  A
C681        C682   1.402       .  A
C681        N688   1.430       .  S
C682        C683   1.403       .  A
C682        H687   1.088       .  S
C683        C684   1.417       .  A
C684        N685   1.430       .  S
N685        O689   1.262       .  A
N685        O690   1.262       .  A
N688        O692   1.262       .  A
N688        O691   1.262       .  A
C693        C694   1.400       .  A
C693        C698   1.403       .  A
C693        H700   1.084       .  S
C694        C695   1.412       .  A
C695        C696   1.401       .  A
C695       N2178   1.429       .  S
C696        C697   1.402       .  A
C696       H2177   1.083       .  S
C697        C698   1.416       .  A
C698        N699   1.429       .  S
N699        O703   1.262       .  A
N699        O704   1.262       .  A
H701       C2172   1.083       .  S
N702       C2171   1.429   1_554  S
N702        O706   1.262       .  A
N702       O2181   1.262       .  A
O705       N2178   1.262       .  A
C707        C708   1.408       .  A
C707        C712   1.396       .  A
C707        H714   1.079       .  S
C708        C709   1.410       .  A
C709       C2186   1.402   1_554  A
C709       N2192   1.428       .  S
C710        C711   1.407       .  A
C710       C2185   1.402       .  A
C710        H715   1.078       .  S
C711       C2188   1.408       .  A
C712       C2187   1.408   1_554  A
C712        N713   1.429       .  S
N713        O717   1.262       .  A
N713        O718   1.262       .  A
N716       C2185   1.428       .  S
N716        O720   1.262       .  A
N716        O719   1.262       .  A
C721        C722   1.403       .  A
C721        C726   1.403       .  A
C721        H728   1.083       .  S
C722        C723   1.417       .  A
C723        C724   1.397       .  A
C723        N730   1.429       .  S
C724        C725   1.400       .  A
C724        H729   1.083       .  S
C725        C726   1.416       .  A
C726        N727   1.429       .  S
N727        O731   1.262       .  A
N727        O732   1.262       .  A
N730        O734   1.262       .  A
N730        O733   1.262       .  A
C735        C736   1.404       .  A
C735        C740   1.400       .  A
C735        H742   1.083       .  S
C736        C737   1.416       .  A
C737        C738   1.400       .  A
C737        N744   1.428       .  S
C738        C739   1.401       .  A
C738        H743   1.083       .  S
C739        C740   1.414       .  A
C740        N741   1.429       .  S
N741        O745   1.262       .  A
N741        O746   1.262       .  A
N744        O748   1.262       .  A
N744        O747   1.262       .  A
C749        C750   1.402       .  A
C749        C754   1.397   1_545  A
C749        H756   1.086       .  S
C750        C751   1.414       .  A
C751        C752   1.402   1_545  A
C751        N758   1.428       .  S
C752        C753   1.402       .  A
C752        H757   1.086       .  S
C753        C754   1.411       .  A
C754        N755   1.429       .  S
N755        O759   1.262       .  A
N755        O760   1.262       .  A
N758        O762   1.262       .  A
N758        O761   1.262       .  A
C763        C764   1.403       .  A
C763        C768   1.401       .  A
C763        H770   1.082       .  S
C764        C765   1.414       .  A
C765        C766   1.399       .  A
C765        N772   1.429       .  S
C766        C767   1.402       .  A
C766        H771   1.081       .  S
C767        C768   1.416       .  A
C768        N769   1.429       .  S
N769        O773   1.262       .  A
N769        O774   1.262       .  A
N772        O776   1.262       .  A
N772        O775   1.262       .  A
C777        C778   1.400       .  A
C777        C782   1.396       .  A
C777       H2260   1.079       .  S
C778       C1751   1.473   1_554  S
C778        C779   1.414       .  A
C779        C780   1.396       .  A
C779        N786   1.429   1_554  S
C780        C781   1.400       .  A
C780        H785   1.079       .  S
C781        C782   1.414       .  A
C782        N783   1.429       .  S
N783       O2263   1.262       .  A
N783        O788   1.262       .  A
H784       C2253   1.079       .  S
N786        O790   1.262       .  A
N786        O789   1.262       .  A
O787       N2259   1.262       .  A
C791        C792   1.399       .  A
C791        C796   1.395       .  A
C791        H798   1.083       .  S
C792        C793   1.415       .  A
C793        C794   1.398       .  A
C793        N800   1.429       .  S
C794        C795   1.402       .  A
C794        H799   1.082       .  S
C795        C796   1.416       .  A
C796        N797   1.429       .  S
N797        O801   1.262       .  A
N797        O802   1.262       .  A
N800        O804   1.262       .  A
N800        O803   1.262       .  A
C805        C806   1.404       .  A
C805        C810   1.408       .  A
C805        H812   1.085       .  S
C806        C807   1.413       .  A
C807        C808   1.397       .  A
C807        N814   1.429       .  S
C808        C809   1.402       .  A
C808        H813   1.085       .  S
C809        C810   1.417       .  A
C810        N811   1.428       .  S
N811        O815   1.262       .  A
N811        O816   1.262       .  A
N814        O818   1.262       .  A
N814        O817   1.262       .  A
C819        C820   1.399       .  A
C819       C2300   1.400       .  A
C819       H2302   1.085       .  S
C820        C821   1.415       .  A
C821        C822   1.400       .  A
C821        N828   1.430       .  S
C822        C823   1.403       .  A
C822        H827   1.085       .  S
C823       C1773   1.484   1_554  S
C823       C2300   1.416       .  A
C824       C2295   1.399       .  A
C824       C2299   1.416       .  A
C824        N825   1.428       .  S
N825        O829   1.262       .  A
N825        O830   1.262       .  A
H826       C2295   1.085       .  S
N828        O832   1.262       .  A
N828        O831   1.262       .  A
C833        C834   1.406       .  A
C833        C838   1.395       .  A
C833        H840   1.085       .  S
C834        C835   1.411       .  A
C835        C836   1.400       .  A
C835        N842   1.429       .  S
C836        C837   1.409       .  A
C836        H841   1.085       .  S
C837        C838   1.408       .  A
C838        N839   1.428       .  S
N839        O843   1.262       .  A
N839        O844   1.262       .  A
N842        O846   1.262       .  A
N842        O845   1.262       .  A
C847        C848   1.403       .  A
C847        C852   1.401       .  A
C847        H854   1.084       .  S
C848        C849   1.418       .  A
C849       C2326   1.405   1_554  A
C849        N856   1.428       .  S
C850       C2325   1.406       .  A
C850       C2327   1.403       .  A
C850        H855   1.085       .  S
C851       C1760   1.490   1_554  S
C851        C852   1.417       .  A
C851       C2326   1.403   1_554  A
C852        N853   1.429       .  S
N853        O857   1.262       .  A
N853        O858   1.262       .  A
N856       O2336   1.262   1_554  A
N856        O859   1.262   1_554  A
O860       N2332   1.262       .  A
C861        C862   1.401       .  A
C861        C866   1.402       .  A
C861        H868   1.080       .  S
C862        C863   1.414       .  A
C863        C864   1.402       .  A
C863        N870   1.430       .  S
C864        C865   1.406       .  A
C864        H869   1.080       .  S
C865        C866   1.418       .  A
C866        N867   1.428       .  S
N867        O871   1.262       .  A
N867        O872   1.262       .  A
N870        O874   1.262       .  A
N870        O873   1.262       .  A
C875        C876   1.402       .  A
C875        C880   1.402       .  A
C875        H882   1.085       .  S
C876        C877   1.412       .  A
C877        C878   1.404       .  A
C877        N884   1.428       .  S
C878        C879   1.404       .  A
C878        H883   1.085       .  S
C879        C880   1.416       .  A
C880       N2357   1.429       .  S
N881       C2356   1.429       .  S
N881        O885   1.262       .  A
N881        O886   1.262       .  A
N884        O888   1.262       .  A
N884        O887   1.262   1_554  A
C889        C890   1.407       .  A
C889        C894   1.400       .  A
C889        H896   1.082       .  S
C890        C891   1.413       .  A
C891        C892   1.407       .  A
C891        N898   1.428       .  S
C892        C893   1.409       .  A
C892        H897   1.082       .  S
C893        C894   1.411       .  A
C894        N895   1.427       .  S
N895        O899   1.262       .  A
N895        O900   1.262       .  A
N898        O902   1.262       .  A
N898        O901   1.262       .  A
C903        C904   1.407       .  A
C903        C908   1.400       .  A
C903        H910   1.082       .  S
C904        C905   1.409       .  A
C905        C906   1.397       .  A
C905        N912   1.429       .  S
C906        C907   1.408       .  A
C906        H911   1.082       .  S
C907        C908   1.410       .  A
C908        N909   1.428       .  S
N909        O913   1.262       .  A
N909        O914   1.262       .  A
N912        O916   1.262       .  A
N912        O915   1.262       .  A
C917        C918   1.403       .  A
C917        C922   1.401       .  A
C917        H924   1.085       .  S
C918        C919   1.415       .  A
C919        C920   1.400       .  A
C919        N926   1.429       .  S
C920        C921   1.403       .  A
C920        H925   1.085       .  S
C921        C922   1.410       .  A
C922        N923   1.427       .  S
N923        O927   1.262       .  A
N923        O928   1.262       .  A
N926        O930   1.262       .  A
N926        O929   1.262       .  A
C931        C932   1.408       .  A
C931        C936   1.397       .  A
C931        H938   1.083       .  S
C932        C933   1.411       .  A
C933        C934   1.402       .  A
C933        N940   1.428       .  S
C934        C935   1.408       .  A
C934        H939   1.084       .  S
C935        C936   1.408       .  A
C936        N937   1.428       .  S
N937        O941   1.261       .  A
N937        O942   1.262       .  A
N940        O944   1.262       .  A
N940        O943   1.262       .  A
C945        C946   1.401       .  A
C945        C950   1.399       .  A
C945        H952   1.083       .  S
C946        C947   1.417       .  A
C947        C948   1.400       .  A
C947        N954   1.429       .  S
C948        C949   1.402       .  A
C948        H953   1.083       .  S
C949        C950   1.415       .  A
C950        N951   1.428       .  S
N951        O955   1.262       .  A
N951        O956   1.262       .  A
N954        O958   1.262       .  A
N954        O957   1.262       .  A
C959        C960   1.405       .  A
C959        C964   1.399       .  A
C959        H966   1.081       .  S
C960        C961   1.409       .  A
C961        C962   1.401       .  A
C961        N968   1.429       .  S
C962        C963   1.408       .  A
C962        H967   1.080       .  S
C963        C964   1.412       .  A
C964        N965   1.429       .  S
N965        O969   1.262       .  A
N965        O970   1.262       .  A
N968        O972   1.262       .  A
N968        O971   1.262       .  A
C973        C974   1.401       .  A
C973        C978   1.401       .  A
C973        H980   1.085       .  S
C974        C975   1.412       .  A
C975        C976   1.406       .  A
C975        N982   1.428       .  S
C976        C977   1.405       .  A
C976        H981   1.085       .  S
C977        C978   1.416       .  A
C978        N979   1.429       .  S
N979        O983   1.262       .  A
N979        O984   1.262       .  A
N982        O986   1.262       .  A
N982        O985   1.262       .  A
C987        C988   1.400       .  A
C987        C992   1.399   1_655  A
C987        H994   1.083       .  S
C988        C989   1.414       .  A
C989        C990   1.401   1_655  A
C989        N996   1.429       .  S
C990        C991   1.401       .  A
C990        H995   1.083       .  S
C991        C992   1.413       .  A
C992        N993   1.429       .  S
N993        O997   1.262       .  A
N993        O998   1.262       .  A
N996       O1000   1.262       .  A
N996        O999   1.262       .  A
C1001      C1002   1.403       .  A
C1001      C1006   1.399       .  A
C1001      H1008   1.081       .  S
C1002      C1003   1.414       .  A
C1003      C1004   1.403       .  A
C1003      N1010   1.429       .  S
C1004      C1005   1.403       .  A
C1004      H1009   1.080       .  S
C1005      C1006   1.415       .  A
C1006      N1007   1.429       .  S
N1007      O1011   1.262       .  A
N1007      O1012   1.262       .  A
N1010      O1014   1.262       .  A
N1010      O1013   1.262       .  A
C1015      C1016   1.405       .  A
C1015      C1020   1.398       .  A
C1015      H1022   1.084       .  S
C1016      C1017   1.412       .  A
C1017      C1018   1.406       .  A
C1017      N1024   1.428       .  S
C1018      C1019   1.405       .  A
C1018      H1023   1.084       .  S
C1019      C1020   1.411       .  A
C1020      N1021   1.429       .  S
N1021      O1025   1.262       .  A
N1021      O1026   1.262       .  A
N1024      O1028   1.262       .  A
N1024      O1027   1.262       .  A
C1029      C1030   1.401       .  A
C1029      C1034   1.398       .  A
C1029      H1036   1.084       .  S
C1030      C1031   1.415       .  A
C1031      C1032   1.398       .  A
C1031      N1038   1.429       .  S
C1032      C1033   1.401       .  A
C1032      H1037   1.084       .  S
C1033      C1034   1.416       .  A
C1034      N1035   1.429       .  S
N1035      O1039   1.262       .  A
N1035      O1040   1.262       .  A
N1038      O1042   1.262       .  A
N1038      O1041   1.262       .  A
C1043      C1044   1.408       .  A
C1043      C1048   1.401       .  A
C1043      H1050   1.088       .  S
C1044      C1045   1.410       .  A
C1045      C2522   1.399       .  A
C1045      N2528   1.428       .  S
C1046      C1047   1.407       .  A
C1046      C2521   1.399       .  A
C1046      H1051   1.088   1_556  S
C1047      C2524   1.411       .  A
C1048      C2523   1.411       .  A
C1048      N1049   1.429       .  S
N1049      O1053   1.262       .  A
N1049      O1054   1.262       .  A
N1052      C2521   1.428       .  S
N1052      O1056   1.262       .  A
N1052      O1055   1.262       .  A
C1057      C1058   1.405       .  A
C1057      C1062   1.392       .  A
C1057      H2540   1.087       .  S
C1058      C1634   1.482       .  S
C1058      C1059   1.412       .  A
C1059      C1060   1.402       .  A
C1059      N1066   1.428       .  S
C1060      C1061   1.407       .  A
C1060      H1065   1.087       .  S
C1061      C1062   1.411       .  A
C1062      N1063   1.429       .  S
N1063      O2543   1.262       .  A
N1063      O1068   1.262       .  A
H1064      C2533   1.087       .  S
N1066      O1070   1.262       .  A
N1066      O1069   1.262       .  A
O1067      N2539   1.262       .  A
C1071      C1072   1.407       .  A
C1071      C1076   1.403       .  A
C1071      H1078   1.087       .  S
C1072      C1073   1.408       .  A
C1073      C1074   1.393       .  A
C1073      N1080   1.429       .  S
C1074      C1075   1.405       .  A
C1074      H1079   1.087       .  S
C1075      C1076   1.411       .  A
C1076      N1077   1.428       .  S
N1077      O1081   1.262       .  A
N1077      O1082   1.262       .  A
N1080      O1084   1.262       .  A
N1080      O1083   1.262       .  A
C1085      C1086   1.408       .  A
C1085      C1090   1.404       .  A
C1085      H1092   1.082       .  S
C1086      C1639   1.488       .  S
C1086      C1087   1.414       .  A
C1087      C1088   1.399       .  A
C1087      N1094   1.429       .  S
C1088      C1089   1.403       .  A
C1088      H1093   1.082       .  S
C1089      C1090   1.411       .  A
C1090      N1091   1.429       .  S
N1091      O1095   1.262       .  A
N1091      O1096   1.262       .  A
N1094      O1098   1.262       .  A
N1094      O2573   1.262       .  A
O1097      N2570   1.262       .  A
C1099      C1100   1.403   1_545  A
C1099      C1104   1.397       .  A
C1099      H1106   1.082       .  S
C1100      C1101   1.416       .  A
C1101      C1102   1.405       .  A
C1101      N1108   1.428       .  S
C1102      C1103   1.403   1_565  A
C1102      H1107   1.081       .  S
C1103      C1104   1.414       .  A
C1104      N1105   1.429       .  S
N1105      O1109   1.262       .  A
N1105      O1110   1.262       .  A
N1108      O1112   1.262       .  A
N1108      O1111   1.262       .  A
C1113      C1114   1.402       .  A
C1113      C1118   1.402       .  A
C1113      H1120   1.085       .  S
C1114      C1115   1.411       .  A
C1115      C1116   1.398       .  A
C1115      N1122   1.429       .  S
C1116      C1117   1.405       .  A
C1116      H1121   1.085       .  S
C1117      C1118   1.412       .  A
C1118      N1119   1.427       .  S
N1119      O1123   1.262       .  A
N1119      O1124   1.262       .  A
N1122      O1126   1.262       .  A
N1122      O1125   1.262       .  A
C1127      C1128   1.406       .  A
C1127      C1132   1.398       .  A
C1127      H1134   1.088       .  S
C1128      C1129   1.413       .  A
C1129      C1130   1.400       .  A
C1129      N1136   1.429       .  S
C1130      C1131   1.407       .  A
C1130      H1135   1.088       .  S
C1131      C1132   1.410       .  A
C1132      N1133   1.428       .  S
N1133      O1137   1.262       .  A
N1133      O1138   1.262       .  A
N1136      O1140   1.262       .  A
N1136      O1139   1.262       .  A
C1141      C1142   1.407       .  A
C1141      C1146   1.396       .  A
C1141      H1148   1.085       .  S
C1142      C1143   1.411       .  A
C1143      C1144   1.402       .  A
C1143      N1150   1.428       .  S
C1144      C1145   1.407       .  A
C1144      H1149   1.085       .  S
C1145      C1146   1.408       .  A
C1146      N1147   1.429       .  S
N1147      O1151   1.262       .  A
N1147      O1152   1.262       .  A
N1150      O1154   1.262       .  A
N1150      O1153   1.262       .  A
C1155      C1156   1.399       .  A
C1155      C2636   1.402       .  A
C1155      H2638   1.083       .  S
C1156      C1157   1.407       .  A
C1157      C1158   1.401       .  A
C1157      N1164   1.428       .  S
C1158      C1159   1.405       .  A
C1158      H1163   1.082       .  S
C1159      C2636   1.419       .  A
C1160      C2631   1.403       .  A
C1160      C2635   1.419       .  A
C1160      N1161   1.429       .  S
N1161      O1165   1.262       .  A
N1161      O1166   1.262       .  A
H1162      C2631   1.083       .  S
N1164      O1168   1.262       .  A
N1164      O1167   1.261       .  A
C1169      C1170   1.399       .  A
C1169      C1174   1.398       .  A
C1169      H1176   1.085       .  S
C1170      C1171   1.414       .  A
C1171      C1172   1.401       .  A
C1171      N1178   1.429       .  S
C1172      C1173   1.401       .  A
C1172      H1177   1.085       .  S
C1173      C1174   1.416       .  A
C1174      N1175   1.429       .  S
N1175      O1179   1.262       .  A
N1175      O1180   1.262       .  A
N1178      O1182   1.262       .  A
N1178      O2657   1.262       .  A
O1181      N2654   1.262       .  A
C1183      C1184   1.401       .  A
C1183      C1188   1.403       .  A
C1183      H1190   1.080       .  S
C1184      C1185   1.411       .  A
C1185      C1186   1.396       .  A
C1185      N1192   1.430       .  S
C1186      C1187   1.403       .  A
C1186      H1191   1.080       .  S
C1187      C1188   1.415       .  A
C1188      N1189   1.428       .  S
N1189      O1193   1.262       .  A
N1189      O1194   1.262       .  A
N1192      O1196   1.262       .  A
N1192      O1195   1.262       .  A
C1197      C1198   1.403   1_545  A
C1197      C1202   1.398       .  A
C1197      H1204   1.083       .  S
C1198      C1199   1.415       .  A
C1199      C1200   1.397       .  A
C1199      N1206   1.429       .  S
C1200      C1201   1.402   1_565  A
C1200      H1205   1.084       .  S
C1201      C1202   1.414       .  A
C1202      N1203   1.429       .  S
N1203      O1207   1.262       .  A
N1203      O1208   1.262       .  A
N1206      O1210   1.262       .  A
N1206      O1209   1.262       .  A
C1211      C1212   1.405       .  A
C1211      C1216   1.398       .  A
C1211      H1218   1.084       .  S
C1212      C1213   1.414       .  A
C1213      C1214   1.405       .  A
C1213      N1220   1.428       .  S
C1214      C1215   1.402       .  A
C1214      H1219   1.084       .  S
C1215      C1216   1.410       .  A
C1216      N1217   1.429       .  S
N1217      O1221   1.262       .  A
N1217      O1222   1.262       .  A
N1220      O1224   1.262       .  A
N1220      O1223   1.262       .  A
C1225      C1226   1.406       .  A
C1225      C1230   1.405   1_455  A
C1225      H1232   1.084       .  S
C1226      C1227   1.413       .  A
C1227      C1228   1.396   1_455  A
C1227      N1234   1.428       .  S
C1228      C1229   1.400       .  A
C1228      H1233   1.084       .  S
C1229      C1230   1.413       .  A
C1230      N1231   1.429       .  S
N1231      O1235   1.262       .  A
N1231      O1236   1.262       .  A
N1234      O1238   1.262       .  A
N1234      O1237   1.262       .  A
C1239      C1240   1.402       .  A
C1239      C1244   1.404       .  A
C1239      H2722   1.082       .  S
C1240      C1561   1.486       .  S
C1240      C1241   1.414       .  A
C1241      C1242   1.403       .  A
C1241      N1248   1.428       .  S
C1242      C1243   1.405       .  A
C1242      H1247   1.082       .  S
C1243      C1244   1.416       .  A
C1244      N1245   1.427       .  S
N1245      O2725   1.262       .  A
N1245      O1250   1.262       .  A
H1246      C2715   1.082   1_554  S
N1248      O1252   1.262       .  A
N1248      O1251   1.262       .  A
O1249      N2721   1.262   1_554  A
C1253      C1254   1.407       .  A
C1253      C1258   1.398       .  A
C1253      H1260   1.080       .  S
C1254      C1255   1.409       .  A
C1255      C1256   1.398       .  A
C1255      N1262   1.429       .  S
C1256      C1257   1.408       .  A
C1256      H1261   1.081       .  S
C1257      C1258   1.408       .  A
C1258      N1259   1.428       .  S
N1259      O1263   1.262       .  A
N1259      O1264   1.262       .  A
N1262      O1266   1.262       .  A
N1262      O1265   1.262       .  A
C1267      C1268   1.407       .  A
C1267      C1272   1.396       .  A
C1267      H1274   1.081       .  S
C1268      C1556   1.478       .  S
C1268      C1269   1.410       .  A
C1269      C1270   1.401       .  A
C1269      N1276   1.429       .  S
C1270      C1271   1.406       .  A
C1270      H1275   1.081       .  S
C1271      C1272   1.407       .  A
C1272      N1273   1.429       .  S
N1273      O1277   1.262       .  A
N1273      O1278   1.262       .  A
N1276      O1280   1.262       .  A
N1276      O2755   1.261       .  A
O1279      N2752   1.261       .  A
C1281      C2758   1.399       .  A
C1281      C2762   1.401       .  A
C1281      H1288   1.084       .  S
C1282      C1283   1.412       .  A
C1282      C2757   1.399   1_554  A
C1283      C1284   1.400       .  A
C1283      N1290   1.429       .  S
C1284      C1285   1.401       .  A
C1284      H1289   1.084       .  S
C1285      C1286   1.415       .  A
C1286      C2757   1.401   1_554  A
C1286      N2763   1.429   1_554  S
N1287      C2762   1.429       .  S
N1287      O1291   1.262       .  A
N1287      O1292   1.262       .  A
N1290      O1294   1.262       .  A
N1290      O1293   1.262       .  A
C1295      C1296   1.403       .  A
C1295      C1300   1.402       .  A
C1295      H1302   1.082       .  S
C1296      C1297   1.415       .  A
C1297      C1298   1.397       .  A
C1297      N1304   1.429       .  S
C1298      C1299   1.402       .  A
C1298      H1303   1.082       .  S
C1299      C1300   1.416       .  A
C1300      N1301   1.429       .  S
N1301      O1305   1.262       .  A
N1301      O1306   1.262       .  A
N1304      O1308   1.262       .  A
N1304      O1307   1.262       .  A
C1309      C1310   1.408       .  A
C1309      C1314   1.400       .  A
C1309      H1316   1.081       .  S
C1310      C1535   1.479       .  S
C1310      C1311   1.409       .  A
C1311      C1312   1.395       .  A
C1311      N1318   1.429       .  S
C1312      C1313   1.407       .  A
C1312      H1317   1.081       .  S
C1313      C1314   1.409       .  A
C1314      N1315   1.428       .  S
N1315      O1319   1.262       .  A
N1315      O1320   1.262       .  A
N1318      O2798   1.262       .  A
N1318      O1321   1.262       .  A
O1322      N2794   1.262       .  A
C1323      C1324   1.403       .  A
C1323      C1328   1.401       .  A
C1323      H1330   1.083       .  S
C1324      C1325   1.417       .  A
C1325      C1326   1.404       .  A
C1325      N1332   1.429       .  S
C1326      C1327   1.404       .  A
C1326      H1331   1.083       .  S
C1327      C1328   1.415       .  A
C1328      N1329   1.428       .  S
N1329      O1333   1.262       .  A
N1329      O1334   1.262       .  A
N1332      O1336   1.262       .  A
N1332      O1335   1.262       .  A
C1337      C1338   1.406       .  A
C1337      C1342   1.395       .  A
C1337      H1344   1.084       .  S
C1338      C1339   1.415       .  A
C1339      C1340   1.406       .  A
C1339      N1346   1.428       .  S
C1340      C1341   1.404       .  A
C1340      H1345   1.084       .  S
C1341      C1342   1.407       .  A
C1342      N2819   1.428       .  S
N1343      C2818   1.428   1_554  S
N1343      O1347   1.262   1_554  A
N1343      O1348   1.262       .  A
N1346      O1350   1.262       .  A
N1346      O1349   1.262       .  A
C1351      C1352   1.402       .  A
C1351      C1356   1.399       .  A
C1351      H1358   1.084       .  S
C1352      C1353   1.416       .  A
C1353      C1354   1.401       .  A
C1353      N1360   1.429       .  S
C1354      C1355   1.399       .  A
C1354      H1359   1.084       .  S
C1355      C1356   1.410       .  A
C1356      N1357   1.428       .  S
N1357      O1361   1.262       .  A
N1357      O1362   1.262       .  A
N1360      O1364   1.262       .  A
N1360      O1363   1.262       .  A
C1365      C1366   1.404       .  A
C1365      C1370   1.399       .  A
C1365      H1372   1.084       .  S
C1366      C1367   1.417       .  A
C1367      C1368   1.403       .  A
C1367      N1374   1.428       .  S
C1368      C1369   1.402       .  A
C1368      H1373   1.084       .  S
C1369      C1370   1.415       .  A
C1370      N1371   1.430       .  S
N1371      O1375   1.262       .  A
N1371      O1376   1.262       .  A
N1374      O1378   1.262       .  A
N1374      O1377   1.262       .  A
C1379      C1380   1.400       .  A
C1379      C1384   1.398       .  A
C1379      H1386   1.086       .  S
C1380      C1381   1.411       .  A
C1381      C1382   1.404       .  A
C1381      N1388   1.428       .  S
C1382      C1383   1.404       .  A
C1382      H1387   1.086       .  S
C1383      C1384   1.415       .  A
C1384      N1385   1.429       .  S
N1385      O1389   1.262       .  A
N1385      O1390   1.262       .  A
N1388      O1392   1.262       .  A
N1388      O1391   1.262       .  A
C1393      C1398   1.401       .  A
C1393      C2870   1.406   1_554  A
C1393      H1400   1.083       .  S
C1394      C1395   1.416       .  A
C1394      C2869   1.406       .  A
C1395      C2872   1.401       .  A
C1395      N1402   1.427       .  S
C1396      C1397   1.398       .  A
C1396      C2871   1.401       .  A
C1396      H1401   1.083       .  S
C1397      C1398   1.412       .  A
C1398      N1399   1.430       .  S
N1399      O1403   1.262       .  A
N1399      O1404   1.262       .  A
N1402      O1406   1.262       .  A
N1402      O1405   1.262       .  A
C1407      C1408   1.404       .  A
C1407      C1412   1.399       .  A
C1407      H1414   1.082       .  S
C1408      C1409   1.416       .  A
C1409      C1410   1.399       .  A
C1409      N1416   1.428       .  S
C1410      C1411   1.399       .  A
C1410      H1415   1.082       .  S
C1411      C1412   1.415       .  A
C1412      N1413   1.430       .  S
N1413      O1417   1.262       .  A
N1413      O1418   1.262       .  A
N1416      O1420   1.262       .  A
N1416      O1419   1.262       .  A
C1421      C1422   1.403       .  A
C1421      C1426   1.405   1_565  A
C1421      H1428   1.085       .  S
C1422      C1423   1.409       .  A
C1423      C1424   1.393   1_565  A
C1423      N1430   1.429       .  S
C1424      C1425   1.402       .  A
C1424      H1429   1.086       .  S
C1425      C1426   1.414       .  A
C1426      N1427   1.428       .  S
N1427      O1431   1.262       .  A
N1427      O1432   1.262       .  A
N1430      O1434   1.262       .  A
N1430      O1433   1.262       .  A
C1435      C1436   1.404       .  A
C1435      C1440   1.396       .  A
C1435      H1442   1.083       .  S
C1436      C1437   1.417       .  A
C1437      C1438   1.400       .  A
C1437      N1444   1.428       .  S
C1438      C1439   1.399       .  A
C1438      H1443   1.083       .  S
C1439      C1478   1.475   1_554  S
C1439      C1440   1.412       .  A
C1440      N1441   1.429       .  S
N1441      O1445   1.262   1_554  A
N1441      O1446   1.262       .  A
N1444      O1448   1.262       .  A
N1444      O1447   1.262       .  A
C1449      C1450   1.399       .  A
C1449      C1454   1.394       .  A
C1449      H1456   1.083       .  S
C1450      C1451   1.416       .  A
C1451      C1452   1.401       .  A
C1451      N1458   1.429       .  S
C1452      C1453   1.402       .  A
C1452      H1457   1.082       .  S
C1453      C1454   1.415       .  A
C1454      N1455   1.429       .  S
N1455      O1459   1.262       .  A
N1455      O1460   1.262       .  A
N1458      O1462   1.262       .  A
N1458      O1461   1.262       .  A
C1463      C1464   1.409       .  A
C1463      C1468   1.405   1_554  A
C1463      H1470   1.079       .  S
C1464      C1465   1.411       .  A
C1465      C1466   1.400       .  A
C1465      N1472   1.428       .  S
C1466      C1467   1.405       .  A
C1466      H1471   1.079       .  S
C1467      C1487   1.486   1_554  S
C1467      C1468   1.411   1_554  A
C1468      N2945   1.429       .  S
N1469      C2944   1.429       .  S
N1469      O1473   1.262       .  A
N1469      O1474   1.262       .  A
N1472      O1476   1.262       .  A
N1472      O1475   1.262       .  A
In1477     O1479   2.219       .  S
In1477     O1480   2.258       .  S
In1477     O1488   2.212       .  S
In1477     O1482   2.246       .  S
In1477     O1484   2.246       .  S
In1477     O1485   2.223       .  S
In1477     O1486   2.194       .  S
In1477     O1489   2.235       .  S
C1478      O1484   1.271       .  A
C1478      O1486   1.261       .  A
O1479      C1487   1.264       .  A
O1480      C1487   1.268       .  A
C1481      O1488   1.261       .  A
C1481      O1482   1.267       .  A
C1481      C2898   1.473       .  S
C1483      O1485   1.268       .  A
C1483      O1489   1.261       .  A
C1483      C2926   1.479       .  S
In1490     O1492   2.234       .  S
In1490     O1493   2.253       .  S
In1490     O1501   2.222       .  S
In1490     O1495   2.262       .  S
In1490     O1497   2.255       .  S
In1490     O1498   2.245       .  S
In1490     O1499   2.208       .  S
In1490     O1502   2.231       .  S
C1491      O1497   1.270       .  A
C1491      O1499   1.260       .  A
C1491      C2873   1.478       .  S
O1492      C1500   1.265       .  A
O1493      C1500   1.268       .  A
C1494      O1501   1.262       .  A
C1494      O1495   1.266       .  A
C1494      C2856   1.479       .  S
C1496      O1498   1.267       .  A
C1496      O1502   1.260       .  A
C1496      C2884   1.483       .  S
C1500      C2940   1.489       .  S
In1503     O1505   2.230       .  S
In1503     O1506   2.228       .  S
In1503     O1514   2.229       .  S
In1503     O1508   2.246       .  S
In1503     O1510   2.246       .  S
In1503     O1511   2.246       .  S
In1503     O1512   2.208       .  S
In1503     O1515   2.232       .  S
C1504      O1510   1.271       .  A
C1504      O1512   1.260       .  A
C1504      C2929   1.480       .  S
O1505      C1513   1.264       .  A
O1506      C1513   1.269       .  A
C1507      O1514   1.262       .  A
C1507      O1508   1.267       .  A
C1507      C2831   1.472       .  S
C1509      O1511   1.268       .  A
C1509      O1515   1.262       .  A
C1509      C2845   1.483       .  S
C1513      C2912   1.482       .  S
In1516     O1518   2.239       .  S
In1516     O1519   2.247       .  S
In1516     O1527   2.198       .  S
In1516     O1521   2.277       .  S
In1516     O1523   2.248       .  S
In1516     O1524   2.235       .  S
In1516     O1525   2.194       .  S
In1516     O1528   2.250       .  S
C1517      O1523   1.272       .  A
C1517      O1525   1.259       .  A
C1517      C2887   1.477       .  S
O1518      C1526   1.263       .  A
O1519      C1526   1.267       .  A
C1520      O1527   1.262       .  A
C1520      O1521   1.268       .  A
C1520      C2814   1.486       .  S
C1522      O1524   1.268       .  A
C1522      O1528   1.264       .  A
C1522      C2842   1.489       .  S
C1526      C2870   1.487       .  S
In1529     O1531   2.253       .  S
In1529     O1532   2.240       .  S
In1529     O1540   2.240       .  S
In1529     O1534   2.245       .  S
In1529     O1536   2.250       .  S
In1529     O1537   2.239       .  S
In1529     O1538   2.211       .  S
In1529     O1541   2.212       .  S
C1530      O1536   1.270       .  A
C1530      O1538   1.261       .  A
C1530      C2772   1.483       .  S
O1531      C1539   1.262       .  A
O1532      C1539   1.267       .  A
C1533      O1540   1.261       .  A
C1533      O1534   1.266       .  A
C1533      C2761   1.478       .  S
C1535      O1537   1.268       .  A
C1535      O1541   1.263       .  A
C1539      C2800   1.489       .  S
In1542     O1544   2.250       .  S
In1542     O1545   2.242       .  S
In1542     O1553   2.198       .  S
In1542     O1547   2.273       .  S
In1542     O1549   2.259       .  S
In1542     O1550   2.255       .  S
In1542     O1551   2.185       .  S
In1542     O1554   2.217       .  S
C1543      O1549   1.272       .  A
C1543      O1551   1.262       .  A
C1543      C2733   1.480       .  S
O1544      C1552   1.264       .  A
O1545      C1552   1.268       .  A
C1546      O1553   1.261       .  A
C1546      O1547   1.267       .  A
C1546      C2901   1.478       .  S
C1548      O1550   1.267       .  A
C1548      O1554   1.262       .  A
C1548      C2747   1.475       .  S
C1552      C2803   1.489       .  S
In1555     O1557   2.207       .  S
In1555     O1558   2.264       .  S
In1555     O1566   2.214       .  S
In1555     O1560   2.273       .  S
In1555     O1562   2.266       .  S
In1555     O1563   2.246       .  S
In1555     O1564   2.191       .  S
In1555     O1567   2.246       .  S
C1556      O1562   1.270       .  A
C1556      O1564   1.260       .  A
O1557      C1565   1.261       .  A
O1558      C1565   1.267       .  A
C1559      O1566   1.261       .  A
C1559      O1560   1.265       .  A
C1559      C2705   1.479       .  S
C1561      O1563   1.267       .  A
C1561      O1567   1.263       .  A
C1565      C2730   1.479       .  S
In1568     O1570   2.250       .  S
In1568     O1571   2.234       .  S
In1568     O1579   2.219       .  S
In1568     O1573   2.266       .  S
In1568     O1575   2.262       .  S
In1568     O1576   2.251       .  S
In1568     O1577   2.185       .  S
In1568     O1580   2.258       .  S
C1569      O1575   1.270       .  A
C1569      O1577   1.260       .  A
C1569      C2789   1.479       .  S
O1570      C1578   1.262       .  A
O1571      C1578   1.266       .  A
C1572      O1579   1.261       .  A
C1572      O1573   1.266       .  A
C1572      C2688   1.486       .  S
C1574      O1576   1.266       .  A
C1574      O1580   1.263       .  A
C1574      C2719   1.494       .  S
C1578      C2775   1.485       .  S
In1581     O1586   2.244       .  S
In1581     O1588   2.241       .  S
In1581     O1589   2.221       .  S
In1581     O1590   2.209       .  S
In1581     O1593   2.234       .  S
C1582      O1588   1.273       .  A
C1582      O1590   1.263       .  A
C1582      C2660   1.476       .  S
O1583      C1591   1.262       .  A
O1584      C1591   1.268       .  A
C1585      O1592   1.262       .  A
C1585      C2635   1.489       .  S
C1587      O1589   1.269       .  A
C1587      O1593   1.264       .  A
C1587      C2674   1.480       .  S
C1591      C2646   1.476       .  S
In1594     O1596   2.219       .  S
In1594     O1597   2.263       .  S
In1594     O1605   2.235       .  S
In1594     O1599   2.247       .  S
In1594     O1601   2.281       .  S
In1594     O1602   2.220       .  S
In1594     O1603   2.196       .  S
In1594     O1606   2.237       .  S
C1595      O1601   1.269       .  A
C1595      O1603   1.259       .  A
C1595      C2618   1.484       .  S
O1596      C1604   1.262       .  A
O1597      C1604   1.265       .  A
C1598      O1605   1.260       .  A
C1598      O1599   1.266       .  A
C1598      C2590   1.477       .  S
C1600      O1602   1.266       .  A
C1600      O1606   1.263       .  A
C1600      C2677   1.479       .  S
C1604      C2604   1.484       .  S
In1607     O1609   2.258       .  S
In1607     O1610   2.228       .  S
In1607     O1618   2.229       .  S
In1607     O1612   2.256       .  S
In1607     O1614   2.259       .  S
In1607     O1615   2.221       .  S
In1607     O1616   2.217       .  S
In1607     O1619   2.253       .  S
C1608      O1614   1.271       .  A
C1608      O1616   1.259       .  A
C1608      C2649   1.480       .  S
O1609      C1617   1.263       .  A
O1610      C1617   1.266       .  A
C1611      O1618   1.260       .  A
C1611      O1612   1.268       .  A
C1611      C2859   1.484       .  S
C1613      O1615   1.266       .  A
C1613      O1619   1.264       .  A
C1613      C2663   1.483       .  S
C1617      C2576   1.487       .  S
In1620     O1622   2.230       .  S
In1620     O1623   2.249       .  S
In1620     O1625   2.244       .  S
In1620     O1627   2.256       .  S
In1620     O1629   2.203       .  S
C1621      O1627   1.271       .  A
C1621      O1629   1.263       .  A
C1621      C2607   1.483       .  S
O1622      C1630   1.262       .  A
O1623      C1630   1.268       .  A
C1624      O1631   1.261       .  A
C1624      C2758   1.473       .  S
C1626      O1628   1.270       .  A
C1626      O1632   1.264       .  A
C1626      C2621   1.479       .  S
C1630      C2579   1.481       .  S
In1633     O1635   2.229       .  S
In1633     O1636   2.235       .  S
In1633     O1644   2.235       .  S
In1633     O1638   2.246       .  S
In1633     O1640   2.285       .  S
In1633     O1641   2.252       .  S
In1633     O1642   2.186       .  S
In1633     O1645   2.240       .  S
C1634      O1640   1.269       .  A
C1634      O1642   1.259       .  A
O1635      C1643   1.262       .  A
O1636      C1643   1.265       .  A
C1637      O1644   1.260       .  A
C1637      O1638   1.266       .  A
C1637      C2828   1.480       .  S
C1639      O1641   1.263       .  A
C1639      O1645   1.262       .  A
C1643      C2548   1.477       .  S
In1646     O1648   2.225       .  S
In1646     O1649   2.228       .  S
In1646     O1657   2.203       .  S
In1646     O1651   2.272       .  S
In1646     O1653   2.265       .  S
In1646     O1654   2.261       .  S
In1646     O1655   2.206       .  S
In1646     O1658   2.224       .  S
C1647      O1653   1.273       .  A
C1647      O1655   1.263       .  A
C1647      C2520   1.486       .  S
O1648      C1656   1.263       .  A
O1649      C1656   1.269       .  A
C1650      O1657   1.262       .  A
C1650      O1651   1.270       .  A
C1650      C2492   1.484       .  S
C1652      O1654   1.268       .  A
C1652      O1658   1.265       .  A
C1652      C2565   1.483       .  S
C1656      C2506   1.480       .  S
In1659     O1661   2.249       .  S
In1659     O1662   2.232       .  S
In1659     O1670   2.236       .  S
In1659     O1664   2.249       .  S
In1659     O1666   2.281       .  S
In1659     O1667   2.231       .  S
In1659     O1668   2.190       .  S
In1659     O1671   2.225       .  S
C1660      O1666   1.270       .  A
C1660      O1668   1.258       .  A
C1660      C2551   1.480       .  S
O1661      C1669   1.261       .  A
O1662      C1669   1.264       .  A
C1663      O1670   1.259       .  A
C1663      O1664   1.266       .  A
C1663      C2464   1.476       .  S
C1665      O1667   1.265       .  A
C1665      O1671   1.265       .  A
C1665      C2537   1.480       .  S
C1669      C2478   1.484       .  S
In1672     O1674   2.234       .  S
In1672     O1675   2.243       .  S
In1672     O1683   2.237       .  S
In1672     O1677   2.268       .  S
In1672     O1679   2.236       .  S
In1672     O1680   2.269       .  S
In1672     O1681   2.223       .  S
In1672     O1684   2.206       .  S
C1673      O1679   1.270       .  A
C1673      O1681   1.261       .  A
C1673      C2509   1.480       .  S
O1674      C1682   1.263       .  A
O1675      C1682   1.270       .  A
C1676      O1683   1.263       .  A
C1676      O1677   1.265       .  A
C1676      C2450   1.484       .  S
C1678      O1680   1.269       .  A
C1678      O1684   1.261       .  A
C1678      C2523   1.486       .  S
C1682      C2481   1.484       .  S
In1685     O1687   2.224       .  S
In1685     O1688   2.248       .  S
In1685     O1696   2.241       .  S
In1685     O1690   2.241       .  S
In1685     O1692   2.280       .  S
In1685     O1693   2.238       .  S
In1685     O1694   2.196       .  S
In1685     O1697   2.230       .  S
C1686      O1692   1.270       .  A
C1686      O1694   1.261       .  A
C1686      C2408   1.486       .  S
O1687      C1695   1.264       .  A
O1688      C1695   1.267       .  A
C1689      O1696   1.261       .  A
C1689      O1690   1.267       .  A
C1689      C2394   1.482       .  S
C1691      O1693   1.267       .  A
C1691      O1697   1.261       .  A
C1691      C2425   1.482       .  S
C1695      C2439   1.484       .  S
In1698     O1700   2.212       .  S
In1698     O1701   2.250       .  S
In1698     O1703   2.250       .  S
In1698     O1705   2.288       .  S
In1698     O1707   2.214       .  S
C1699      O1705   1.271       .  A
C1699      O1707   1.262       .  A
C1699      C2366   1.493       .  S
O1700      C1708   1.264       .  A
O1701      C1708   1.268       .  A
C1702      O1709   1.262       .  A
C1702      C2355   1.489       .  S
C1704      O1706   1.268       .  A
C1704      O1710   1.262       .  A
C1704      C2380   1.480       .  S
C1708      C2436   1.481       .  S
In1711     O1716   2.246       .  S
In1711     O1718   2.239       .  S
In1711     O1719   2.241       .  S
In1711     O1720   2.228       .  S
In1711     O1723   2.212       .  S
C1712      O1718   1.271       .  A
C1712      O1720   1.262       .  A
C1712      C2422   1.483       .  S
O1713      C1721   1.261       .  A
O1714      C1721   1.269       .  A
C1715      O1722   1.263       .  A
C1715      C2817   1.476       .  S
C1717      O1719   1.270       .  A
C1717      O1723   1.263       .  A
C1717      C2338   1.484       .  S
C1721      C2411   1.482       .  S
In1724     O1726   2.234       .  S
In1724     O1727   2.265       .  S
In1724     O1735   2.243       .  S
In1724     O1729   2.251       .  S
In1724     O1731   2.271       .  S
In1724     O1732   2.250       .  S
In1724     O1733   2.193       .  S
In1724     O1736   2.246       .  S
C1725      O1731   1.270       .  A
C1725      O1733   1.260       .  A
C1725      C2383   1.482       .  S
O1726      C1734   1.262       .  A
O1727      C1734   1.268       .  A
C1728      O1735   1.262       .  A
C1728      O1729   1.265       .  A
C1728      C2495   1.482       .  S
C1730      O1732   1.268       .  A
C1730      O1736   1.263       .  A
C1730      C2341   1.492       .  S
C1734      C2369   1.492       .  S
In1737     O1739   2.251       .  S
In1737     O1740   2.236       .  S
In1737     O1748   2.220       .  S
In1737     O1742   2.283       .  S
In1737     O1744   2.246       .  S
In1737     O1745   2.268       .  S
In1737     O1746   2.221       .  S
In1737     O1749   2.198       .  S
C1738      O1744   1.272       .  A
C1738      O1746   1.261       .  A
C1738      C2296   1.479       .  S
O1739      C1747   1.265       .  A
O1740      C1747   1.269       .  A
C1741      O1748   1.263       .  A
C1741      O1742   1.267       .  A
C1741      C2285   1.489       .  S
C1743      O1745   1.268       .  A
C1743      O1749   1.261       .  A
C1743      C2310   1.481       .  S
C1747      C2324   1.493       .  S
In1750     O1752   2.240       .  S
In1750     O1753   2.255       .  S
In1750     O1761   2.232       .  S
In1750     O1755   2.244       .  S
In1750     O1757   2.221       .  S
In1750     O1758   2.219       .  S
In1750     O1759   2.208       .  S
In1750     O1762   2.224       .  S
C1751      O1757   1.271       .  A
C1751      O1759   1.262       .  A
O1752      C1760   1.262       .  A
O1753      C1760   1.268       .  A
C1754      O1761   1.262       .  A
C1754      O1755   1.266       .  A
C1754      C2467   1.476       .  S
C1756      O1758   1.270       .  A
C1756      O1762   1.263       .  A
C1756      C2268   1.476       .  S
In1763     O1765   2.226       .  S
In1763     O1766   2.243       .  S
In1763     O1774   2.229       .  S
In1763     O1768   2.250       .  S
In1763     O1770   2.254       .  S
In1763     O1771   2.227       .  S
In1763     O1772   2.197       .  S
In1763     O1775   2.245       .  S
C1764      O1770   1.272       .  A
C1764      O1772   1.261       .  A
C1764      C2313   1.481       .  S
O1765      C1773   1.262       .  A
O1766      C1773   1.269       .  A
C1767      O1774   1.262       .  A
C1767      O1768   1.267       .  A
C1767      C2632   1.473       .  S
C1769      O1771   1.269       .  A
C1769      O1775   1.265       .  A
C1769      C2243   1.484       .  S
In1776     O1778   2.223       .  S
In1776     O1779   2.222       .  S
In1776     O1787   2.231       .  S
In1776     O1781   2.239       .  S
In1776     O1783   2.235       .  S
In1776     O1784   2.228       .  S
In1776     O1785   2.214       .  S
In1776     O1788   2.227       .  S
C1777      O1783   1.271       .  A
C1777      O1785   1.261       .  A
C1777      C2271   1.478       .  S
O1778      C1786   1.261       .  A
O1779      C1786   1.267       .  A
C1780      O1787   1.261       .  A
C1780      O1781   1.267       .  A
C1780      C2229   1.477       .  S
C1782      O1784   1.268       .  A
C1782      O1788   1.264       .  A
C1782      C2240   1.482       .  S
C1786      C2257   1.473       .  S
In1789     O1791   2.214       .  S
In1789     O1792   2.239       .  S
In1789     O1800   2.236       .  S
In1789     O1794   2.260       .  S
In1789     O1796   2.259       .  S
In1789     O1797   2.238       .  S
In1789     O1798   2.215       .  S
In1789     O1801   2.244       .  S
C1790      O1796   1.272       .  A
C1790      O1798   1.260       .  A
C1790      C2198   1.485       .  S
O1791      C1799   1.264       .  A
O1792      C1799   1.268       .  A
C1793      O1800   1.260       .  A
C1793      O1794   1.267       .  A
C1793      C2170   1.477       .  S
C1795      O1797   1.267       .  A
C1795      O1801   1.262       .  A
C1795      C2212   1.486       .  S
C1799      C2187   1.479       .  S
In1802     O1804   2.211       .  S
In1802     O1805   2.258       .  S
In1802     O1813   2.229       .  S
In1802     O1807   2.246       .  S
In1802     O1809   2.263       .  S
In1802     O1810   2.231       .  S
In1802     O1811   2.208       .  S
In1802     O1814   2.236       .  S
C1803      O1809   1.271       .  A
C1803      O1811   1.261       .  A
C1803      C2159   1.485       .  S
O1804      C1812   1.262       .  A
O1805      C1812   1.268       .  A
C1806      O1813   1.262       .  A
C1806      O1807   1.268       .  A
C1806      C2702   1.482       .  S
C1808      O1810   1.268       .  A
C1808      O1814   1.263       .  A
C1808      C2215   1.482       .  S
C1812      C2145   1.482       .  S
In1815     O1817   2.221       .  S
In1815     O1818   2.269       .  S
In1815     O1826   2.226       .  S
In1815     O1820   2.264       .  S
In1815     O1822   2.276       .  S
In1815     O1823   2.235       .  S
In1815     O1824   2.194       .  S
In1815     O1827   2.242       .  S
C1816      O1822   1.269       .  A
C1816      O1824   1.259       .  A
C1816      C2184   1.483       .  S
O1817      C1825   1.264       .  A
O1818      C1825   1.266       .  A
C1819      O1826   1.261       .  A
C1819      O1820   1.265       .  A
C1819      C2397   1.479       .  S
C1821      O1823   1.266       .  A
C1821      O1827   1.260       .  A
C1821      C2201   1.483       .  S
C1825      C2131   1.487       .  S
In1828     O1830   2.223   1_556  S
In1828     O1831   2.247       .  S
In1828     O1839   2.220       .  S
In1828     O1833   2.239       .  S
In1828     O1835   2.265       .  S
In1828     O1836   2.255       .  S
In1828     O1837   2.192       .  S
In1828     O1840   2.220       .  S
C1829      O1835   1.270       .  A
C1829      O1837   1.262       .  A
O1830      C1838   1.264   1_554  A
O1831      C1838   1.268       .  A
C1832      O1839   1.261       .  A
C1832      O1833   1.266       .  A
C1832      C2114   1.471       .  S
C1834      O1836   1.268       .  A
C1834      O1840   1.261       .  A
C1834      C2156   1.479       .  S
In1841     O1843   2.214       .  S
In1841     O1844   2.258       .  S
In1841     O1852   2.199       .  S
In1841     O1846   2.252       .  S
In1841     O1848   2.255       .  S
In1841     O1849   2.209       .  S
In1841     O1850   2.189       .  S
In1841     O1853   2.239       .  S
C1842      O1848   1.271       .  A
C1842      O1850   1.261       .  A
C1842      C2072   1.477       .  S
O1843      C1851   1.265       .  A
O1844      C1851   1.267       .  A
C1845      O1852   1.262       .  A
C1845      O1846   1.267       .  A
C1845      C2117   1.472       .  S
C1847      O1849   1.268       .  A
C1847      O1853   1.262       .  A
C1847      C2089   1.478       .  S
C1851      C2103   1.483       .  S
In1854     O1856   2.227       .  S
In1854     O1857   2.245       .  S
In1854     O1865   2.237       .  S
In1854     O1859   2.272       .  S
In1854     O1861   2.274       .  S
In1854     O1862   2.263       .  S
In1854     O1863   2.218       .  S
In1854     O1866   2.194       .  S
C1855      O1861   1.270       .  A
C1855      O1863   1.260       .  A
C1855      C2044   1.485       .  S
O1856      C1864   1.265       .  A
O1857      C1864   1.267       .  A
C1858      O1865   1.262       .  A
C1858      O1859   1.265       .  A
C1858      C2352   1.484       .  S
C1860      O1862   1.267       .  A
C1860      O1866   1.260       .  A
C1860      C2058   1.476       .  S
C1864      C2100   1.487       .  S
In1867     O1869   2.206       .  S
In1867     O1870   2.263       .  S
In1867     O1878   2.217       .  S
In1867     O1872   2.267       .  S
In1867     O1874   2.243       .  S
In1867     O1875   2.250       .  S
In1867     O1876   2.203       .  S
In1867     O1879   2.240       .  S
C1868      C2086   1.477   1_554  S
O1869      C1877   1.260       .  A
O1870      C1877   1.267       .  A
C1871      O1878   1.262       .  A
C1871      O1872   1.265       .  A
C1871      C2226   1.480       .  S
C1873      O1875   1.269       .  A
C1873      O1879   1.263       .  A
C1877      C2075   1.476       .  S
In1880     O1882   2.246       .  S
In1880     O1883   2.223       .  S
In1880     O1891   2.209       .  S
In1880     O1885   2.257       .  S
In1880     O1887   2.255       .  S
In1880     O1888   2.246       .  S
In1880     O1889   2.192       .  S
In1880     O1892   2.232       .  S
C1881      O1887   1.272       .  A
C1881      O1889   1.261       .  A
C1881      C2061   1.480       .  S
O1882      C1890   1.264       .  A
O1883      C1890   1.268       .  A
C1884      O1891   1.263       .  A
C1884      O1885   1.269       .  A
C1884      C2593   1.482       .  S
C1886      O1888   1.268       .  A
C1886      O1892   1.264       .  A
C1886      C2033   1.488       .  S
C1890      C2047   1.485       .  S
In1893     O1895   2.246       .  S
In1893     O1896   2.225       .  S
In1893     O1904   2.221       .  S
In1893     O1898   2.258       .  S
In1893     O1900   2.261       .  S
In1893     O1901   2.230       .  S
In1893     O1902   2.229       .  S
In1893     O1905   2.213       .  S
C1894      O1900   1.272       .  A
C1894      O1902   1.260       .  A
C1894      C2002   1.487       .  S
O1895      C1903   1.262       .  A
O1896      C1903   1.266       .  A
C1897      O1904   1.261       .  A
C1897      O1898   1.269       .  A
C1897      C2691   1.477       .  S
C1899      O1901   1.269       .  A
C1899      O1905   1.266       .  A
C1899      C2019   1.480       .  S
C1903      C1988   1.479       .  S
In1906     O1911   2.243       .  S
In1906     O1913   2.288       .  S
In1906     O1914   2.263       .  S
In1906     O1915   2.210       .  S
In1906     O1918   2.224       .  S
C1907      O1913   1.268       .  A
C1907      O1915   1.261       .  A
C1907      C1977   1.491       .  S
O1908      C1916   1.262       .  A
O1909      C1916   1.267       .  A
C1910      O1917   1.261       .  A
C1910      C2173   1.483       .  S
C1912      O1914   1.265       .  A
C1912      O1918   1.262       .  A
C1912      C2016   1.485       .  S
C1916      C1960   1.479       .  S
In1919     O1921   2.252       .  S
In1919     O1922   2.232       .  S
In1919     O1924   2.258       .  S
In1919     O1926   2.252       .  S
In1919     O1928   2.212       .  S
C1920      O1926   1.273       .  A
C1920      O1928   1.261       .  A
C1920      C1991   1.478       .  S
O1921      C1929   1.266       .  A
O1922      C1929   1.269       .  A
C1923      O1930   1.262       .  A
C1923      C2453   1.490       .  S
C1925      O1927   1.269       .  A
C1925      O1931   1.263       .  A
C1925      C2005   1.487       .  S
C1929      C1946   1.489       .  S
In1932     O1934   2.254       .  S
In1932     O1935   2.230       .  S
In1932     O1943   2.220       .  S
In1932     O1937   2.265       .  S
In1932     O1939   2.280       .  S
In1932     O1940   2.257       .  S
In1932     O1941   2.186       .  S
In1932     O1944   2.240       .  S
C1933      O1939   1.272       .  A
C1933      O1941   1.261       .  A
C1933      C1963   1.484       .  S
O1934      C1942   1.265       .  A
O1935      C1942   1.267       .  A
C1936      O1943   1.260       .  A
C1936      O1937   1.269       .  A
C1936      C2282   1.484       .  S
C1938      O1940   1.266       .  A
C1938      O1944   1.264       .  A
C1938      C1974   1.488       .  S
C1942      C1949   1.487       .  S
C1945      C1946   1.405   1_455  A
C1945      C1950   1.402       .  A
C1945      H1952   1.081       .  S
C1946      C1947   1.415       .  A
C1947      C1948   1.401   1_655  A
C1947      N1954   1.428       .  S
C1948      C1949   1.403       .  A
C1948      H1953   1.081   1_455  S
C1949      C1950   1.414       .  A
C1950      N1951   1.429       .  S
N1951      O1955   1.262       .  A
N1951      O1956   1.262       .  A
N1954      O1958   1.262       .  A
N1954      O1957   1.262       .  A
C1959      C1960   1.407       .  A
C1959      C1964   1.401       .  A
C1959      H1966   1.081       .  S
C1960      C1961   1.408       .  A
C1961      C1962   1.396       .  A
C1961      N1968   1.429       .  S
C1962      C1963   1.408       .  A
C1962      H1967   1.081       .  S
C1963      C1964   1.411       .  A
C1964      N1965   1.428       .  S
N1965      O1969   1.262       .  A
N1965      O1970   1.262       .  A
N1968      O1972   1.262       .  A
N1968      O1971   1.262       .  A
C1973      C1974   1.408       .  A
C1973      C1978   1.406       .  A
C1973      H1980   1.087       .  S
C1974      C1975   1.410       .  A
C1975      C1976   1.398       .  A
C1975      N1982   1.428       .  S
C1976      C1977   1.406       .  A
C1976      H1981   1.087       .  S
C1977      C1978   1.415       .  A
C1978      N1979   1.428       .  S
N1979      O1983   1.262       .  A
N1979      O1984   1.262       .  A
N1982      O1986   1.262       .  A
N1982      O1985   1.262       .  A
C1987      C1988   1.401       .  A
C1987      C1992   1.395       .  A
C1987      H1994   1.085       .  S
C1988      C1989   1.415       .  A
C1989      C1990   1.403       .  A
C1989      N1996   1.429       .  S
C1990      C1991   1.402       .  A
C1990      H1995   1.085       .  S
C1991      C1992   1.413       .  A
C1992      N1993   1.429       .  S
N1993      O1997   1.262       .  A
N1993      O1998   1.262       .  A
N1996      O2000   1.262       .  A
N1996      O1999   1.262       .  A
C2001      C2002   1.402       .  A
C2001      C2006   1.404       .  A
C2001      H2008   1.081       .  S
C2002      C2003   1.417       .  A
C2003      C2004   1.400       .  A
C2003      N2010   1.429       .  S
C2004      C2005   1.402       .  A
C2004      H2009   1.081       .  S
C2005      C2006   1.416       .  A
C2006      N2007   1.428       .  S
N2007      O2011   1.262       .  A
N2007      O2012   1.262       .  A
N2010      O2014   1.262       .  A
N2010      O2013   1.262       .  A
C2015      C2016   1.407       .  A
C2015      C2020   1.399   1_455  A
C2015      H2022   1.081       .  S
C2016      C2017   1.412   1_455  A
C2017      C2018   1.401       .  A
C2017      N2024   1.429       .  S
C2018      C2019   1.406       .  A
C2018      H2023   1.081       .  S
C2019      C2020   1.410       .  A
C2020      N2021   1.429   1_655  S
N2021      O2025   1.262       .  A
N2021      O2026   1.262       .  A
N2024      O2028   1.262       .  A
N2024      O2027   1.262       .  A
C2029      H2036   1.084       .  S
C2030      C2031   1.418       .  A
C2031      C2032   1.403       .  A
C2031      N2038   1.428       .  S
C2032      C2033   1.402       .  A
C2032      H2037   1.083       .  S
C2033      C2034   1.415       .  A
C2034      N2035   1.429       .  S
N2035      O2040   1.262       .  A
N2038      O2042   1.262       .  A
N2038      O2041   1.262       .  A
C2043      C2044   1.405       .  A
C2043      C2048   1.408       .  A
C2043      H2050   1.082       .  S
C2044      C2045   1.414       .  A
C2045      C2046   1.395       .  A
C2045      N2052   1.429       .  S
C2046      C2047   1.401       .  A
C2046      H2051   1.082       .  S
C2047      C2048   1.417       .  A
C2048      N2049   1.429       .  S
N2049      O2053   1.262       .  A
N2049      O2054   1.262       .  A
N2052      O2056   1.262       .  A
N2052      O2055   1.262       .  A
C2057      C2058   1.405       .  A
C2057      H2064   1.087       .  S
C2059      C2060   1.399       .  A
C2059      N2066   1.429       .  S
C2060      C2061   1.409       .  A
C2060      H2065   1.087       .  S
C2061      C2062   1.408       .  A
N2063      O2067   1.262       .  A
N2066      O2070   1.262       .  A
N2066      O2069   1.262       .  A
C2071      C2072   1.407       .  A
C2071      C2076   1.397       .  A
C2071      H2078   1.087       .  S
C2072      C2073   1.408       .  A
C2073      C2074   1.397       .  A
C2073      N2080   1.428       .  S
C2074      C2075   1.406       .  A
C2074      H2079   1.087       .  S
C2075      C2076   1.408       .  A
C2076      N2077   1.428       .  S
N2077      O2081   1.262       .  A
N2077      O2082   1.262       .  A
N2080      O2084   1.262       .  A
N2080      O2083   1.262       .  A
C2085      C2086   1.402       .  A
C2085      C2090   1.401       .  A
C2085      H2092   1.084       .  S
C2086      C2087   1.414       .  A
C2087      C2088   1.391       .  A
C2088      C2089   1.400       .  A
C2088      H2093   1.084       .  S
C2089      C2090   1.416       .  A
C2090      N2091   1.429       .  S
N2091      O2095   1.262       .  A
N2091      O2096   1.262       .  A
N2094      O2098   1.262       .  A
N2094      O2097   1.262       .  A
C2099      C2100   1.409       .  A
C2099      C2104   1.404       .  A
C2099      H2106   1.079       .  S
C2100      C2101   1.411       .  A
C2101      C2102   1.398       .  A
C2101      N2108   1.428       .  S
C2102      C2103   1.405       .  A
C2102      H2107   1.080       .  S
C2103      C2104   1.411       .  A
C2104      N2105   1.429       .  S
N2105      O2109   1.262       .  A
N2105      O2110   1.262       .  A
N2108      O2112   1.262       .  A
N2108      O2111   1.262       .  A
C2113      C2114   1.402       .  A
C2113      C2118   1.400       .  A
C2113      H2120   1.086       .  S
C2114      C2115   1.411       .  A
C2115      C2116   1.394       .  A
C2115      N2122   1.429       .  S
C2116      C2117   1.402       .  A
C2116      H2121   1.086       .  S
C2117      C2118   1.411       .  A
C2118      N2119   1.428       .  S
N2119      O2123   1.262       .  A
N2119      O2124   1.262       .  A
N2122      O2126   1.262       .  A
N2122      O2125   1.262       .  A
C2127      C2128   1.406       .  A
C2127      C2132   1.403       .  A
C2127      H2134   1.080       .  S
C2128      C2129   1.409       .  A
C2129      C2130   1.399       .  A
C2130      C2131   1.406       .  A
C2130      H2135   1.080       .  S
C2131      C2132   1.414       .  A
C2132      N2133   1.429       .  S
N2133      O2137   1.262       .  A
N2133      O2138   1.262       .  A
N2136      O2140   1.262       .  A
N2136      O2139   1.262       .  A
C2141      C2142   1.406       .  A
C2141      C2146   1.396       .  A
C2142      C2143   1.410       .  A
C2143      C2144   1.400       .  A
C2143      N2150   1.428       .  S
C2144      C2145   1.407       .  A
C2144      H2149   1.087       .  S
C2145      C2146   1.410       .  A
C2146      N2147   1.428       .  S
N2147      O2152   1.262       .  A
N2150      O2154   1.262       .  A
N2150      O2153   1.262       .  A
C2155      C2156   1.399       .  A
C2155      C2160   1.401       .  A
C2155      H2162   1.088       .  S
C2156      C2157   1.414       .  A
C2157      C2158   1.402       .  A
C2157      N2164   1.430       .  S
C2158      C2159   1.403       .  A
C2158      H2163   1.088       .  S
C2159      C2160   1.417       .  A
C2160      N2161   1.430       .  S
N2161      O2165   1.262       .  A
N2161      O2166   1.262       .  A
N2164      O2168   1.262       .  A
N2164      O2167   1.262       .  A
C2169      C2170   1.400       .  A
C2169      C2174   1.402       .  A
C2169      H2176   1.084       .  S
C2170      C2171   1.412       .  A
C2171      C2172   1.401   1_556  A
C2172      C2173   1.402   1_554  A
C2173      C2174   1.416       .  A
C2174      N2175   1.429       .  S
N2175      O2179   1.262       .  A
N2175      O2180   1.262       .  A
N2178      O2182   1.262       .  A
C2183      C2184   1.408       .  A
C2183      C2188   1.396       .  A
C2183      H2190   1.079       .  S
C2184      C2185   1.410       .  A
C2186      C2187   1.407       .  A
C2186      H2191   1.078       .  S
C2188      N2189   1.429       .  S
N2189      O2193   1.262       .  A
N2189      O2194   1.262       .  A
N2192      O2196   1.262       .  A
N2192      O2195   1.262   1_554  A
C2197      C2198   1.403       .  A
C2197      C2202   1.403       .  A
C2197      H2204   1.083       .  S
C2198      C2199   1.417       .  A
C2199      C2200   1.397       .  A
C2199      N2206   1.429       .  S
C2200      C2201   1.400       .  A
C2200      H2205   1.083       .  S
C2201      C2202   1.416       .  A
C2202      N2203   1.429       .  S
N2203      O2207   1.262       .  A
N2203      O2208   1.262       .  A
N2206      O2210   1.262       .  A
N2206      O2209   1.262       .  A
C2211      C2212   1.404       .  A
C2211      C2216   1.400       .  A
C2211      H2218   1.083       .  S
C2212      C2213   1.416       .  A
C2213      C2214   1.400       .  A
C2213      N2220   1.428       .  S
C2214      C2215   1.401       .  A
C2214      H2219   1.083       .  S
C2215      C2216   1.414       .  A
C2216      N2217   1.429       .  S
N2217      O2221   1.262       .  A
N2217      O2222   1.262       .  A
N2220      O2224   1.262       .  A
N2220      O2223   1.262       .  A
C2225      C2226   1.402       .  A
C2225      C2230   1.397   1_545  A
C2225      H2232   1.086       .  S
C2226      C2227   1.413       .  A
C2227      C2228   1.402   1_545  A
C2227      N2234   1.428       .  S
C2228      C2229   1.402       .  A
C2228      H2233   1.086       .  S
C2229      C2230   1.411       .  A
C2230      N2231   1.429       .  S
N2231      O2235   1.262       .  A
N2231      O2236   1.262       .  A
N2234      O2238   1.262       .  A
N2234      O2237   1.262       .  A
C2239      C2240   1.403       .  A
C2239      C2244   1.401       .  A
C2239      H2246   1.082       .  S
C2240      C2241   1.414       .  A
C2241      C2242   1.399       .  A
C2241      N2248   1.429       .  S
C2242      C2243   1.402       .  A
C2242      H2247   1.081       .  S
C2243      C2244   1.416       .  A
C2244      N2245   1.429       .  S
N2245      O2249   1.262       .  A
N2245      O2250   1.262       .  A
N2248      O2252   1.262       .  A
N2248      O2251   1.262       .  A
C2253      C2254   1.401       .  A
C2253      C2258   1.395       .  A
C2254      C2255   1.414       .  A
C2255      C2256   1.396       .  A
C2255      N2262   1.429       .  S
C2256      C2257   1.400       .  A
C2256      H2261   1.079       .  S
C2257      C2258   1.413       .  A
C2258      N2259   1.429       .  S
N2259      O2264   1.262       .  A
N2262      O2266   1.262       .  A
N2262      O2265   1.262       .  A
C2267      C2268   1.399       .  A
C2267      C2272   1.395       .  A
C2267      H2274   1.083       .  S
C2268      C2269   1.415       .  A
C2269      C2270   1.398       .  A
C2269      N2276   1.429       .  S
C2270      C2271   1.401       .  A
C2270      H2275   1.082       .  S
C2271      C2272   1.416       .  A
C2272      N2273   1.429       .  S
N2273      O2277   1.262       .  A
N2273      O2278   1.262       .  A
N2276      O2280   1.262       .  A
N2276      O2279   1.262       .  A
C2281      C2282   1.404       .  A
C2281      C2286   1.408       .  A
C2281      H2288   1.085       .  S
C2282      C2283   1.413       .  A
C2283      C2284   1.397       .  A
C2283      N2290   1.429       .  S
C2284      C2285   1.402       .  A
C2284      H2289   1.085       .  S
C2285      C2286   1.417       .  A
C2286      N2287   1.428       .  S
N2287      O2291   1.262       .  A
N2287      O2292   1.262       .  A
N2290      O2294   1.262       .  A
N2290      O2293   1.262       .  A
C2295      C2296   1.399       .  A
C2296      C2297   1.416       .  A
C2297      C2298   1.400       .  A
C2297      N2304   1.430       .  S
C2298      C2299   1.403       .  A
C2298      H2303   1.085       .  S
C2300      N2301   1.428       .  S
N2301      O2305   1.262       .  A
N2301      O2306   1.262   1_554  A
N2304      O2308   1.262       .  A
N2304      O2307   1.262       .  A
C2309      C2310   1.406       .  A
C2309      C2314   1.395       .  A
C2309      H2316   1.085       .  S
C2310      C2311   1.411       .  A
C2311      C2312   1.400       .  A
C2311      N2318   1.429       .  S
C2312      C2313   1.409       .  A
C2312      H2317   1.085       .  S
C2313      C2314   1.408       .  A
C2314      N2315   1.428       .  S
N2315      O2319   1.262       .  A
N2315      O2320   1.262       .  A
N2318      O2322   1.262       .  A
N2318      O2321   1.262       .  A
C2323      C2324   1.403       .  A
C2323      C2328   1.401       .  A
C2323      H2330   1.084       .  S
C2324      C2325   1.418       .  A
C2325      N2332   1.428       .  S
C2326      H2331   1.085       .  S
C2327      C2328   1.416       .  A
C2328      N2329   1.429       .  S
N2329      O2333   1.262       .  A
N2329      O2334   1.262       .  A
N2332      O2335   1.262       .  A
C2337      C2338   1.401       .  A
C2337      C2342   1.402       .  A
C2337      H2344   1.080       .  S
C2338      C2339   1.414       .  A
C2339      C2340   1.402       .  A
C2339      N2346   1.430       .  S
C2340      C2341   1.406       .  A
C2340      H2345   1.080       .  S
C2341      C2342   1.418       .  A
C2342      N2343   1.428       .  S
N2343      O2347   1.262       .  A
N2343      O2348   1.262       .  A
N2346      O2350   1.262       .  A
N2346      O2349   1.262       .  A
C2351      C2352   1.402       .  A
C2351      C2356   1.402       .  A
C2351      H2358   1.085       .  S
C2352      C2353   1.412       .  A
C2353      C2354   1.404       .  A
C2353      N2360   1.428       .  S
C2354      C2355   1.404       .  A
C2354      H2359   1.085       .  S
C2355      C2356   1.416       .  A
N2357      O2361   1.262       .  A
N2357      O2362   1.262       .  A
N2360      O2364   1.262       .  A
N2360      O2363   1.262       .  A
C2365      C2366   1.407       .  A
C2365      C2370   1.400       .  A
C2365      H2372   1.082       .  S
C2366      C2367   1.413       .  A
C2367      C2368   1.407       .  A
C2367      N2374   1.428       .  S
C2368      C2369   1.409       .  A
C2368      H2373   1.082       .  S
C2369      C2370   1.411       .  A
C2370      N2371   1.427       .  S
N2371      O2375   1.262       .  A
N2371      O2376   1.262       .  A
N2374      O2378   1.262       .  A
N2374      O2377   1.262       .  A
C2379      C2380   1.407       .  A
C2379      C2384   1.400       .  A
C2379      H2386   1.082       .  S
C2380      C2381   1.409       .  A
C2381      C2382   1.397       .  A
C2381      N2388   1.429       .  S
C2382      C2383   1.408       .  A
C2382      H2387   1.082       .  S
C2383      C2384   1.410       .  A
C2384      N2385   1.428       .  S
N2385      O2389   1.262       .  A
N2385      O2390   1.262       .  A
N2388      O2392   1.262       .  A
N2388      O2391   1.262       .  A
C2393      C2394   1.403       .  A
C2393      C2398   1.401       .  A
C2393      H2400   1.085       .  S
C2394      C2395   1.415       .  A
C2395      C2396   1.401       .  A
C2395      N2402   1.429       .  S
C2396      C2397   1.403       .  A
C2396      H2401   1.085       .  S
C2397      C2398   1.410       .  A
C2398      N2399   1.427       .  S
N2399      O2403   1.262       .  A
N2399      O2404   1.262       .  A
N2402      O2406   1.262       .  A
N2402      O2405   1.262       .  A
C2407      C2408   1.408       .  A
C2407      C2412   1.397       .  A
C2407      H2414   1.083       .  S
C2408      C2409   1.411       .  A
C2409      C2410   1.402       .  A
C2409      N2416   1.428       .  S
C2410      C2411   1.408       .  A
C2410      H2415   1.084       .  S
C2411      C2412   1.408       .  A
C2412      N2413   1.428       .  S
N2413      O2417   1.262       .  A
N2413      O2418   1.262       .  A
N2416      O2420   1.262       .  A
N2416      O2419   1.262       .  A
C2421      C2422   1.401       .  A
C2421      C2426   1.399       .  A
C2421      H2428   1.083       .  S
C2422      C2423   1.417       .  A
C2423      C2424   1.400       .  A
C2423      N2430   1.429       .  S
C2424      C2425   1.402       .  A
C2424      H2429   1.083       .  S
C2425      C2426   1.415       .  A
C2426      N2427   1.428       .  S
N2427      O2431   1.262       .  A
N2427      O2432   1.262       .  A
N2430      O2434   1.262       .  A
N2430      O2433   1.262       .  A
C2435      C2436   1.405       .  A
C2435      C2440   1.399       .  A
C2435      H2442   1.081       .  S
C2436      C2437   1.409       .  A
C2437      C2438   1.401       .  A
C2437      N2444   1.429       .  S
C2438      C2439   1.408       .  A
C2438      H2443   1.080       .  S
C2439      C2440   1.412       .  A
C2440      N2441   1.429       .  S
N2441      O2445   1.262       .  A
N2441      O2446   1.262       .  A
N2444      O2448   1.262       .  A
N2444      O2447   1.262       .  A
C2449      C2450   1.401       .  A
C2449      C2454   1.401       .  A
C2449      H2456   1.085       .  S
C2450      C2451   1.413       .  A
C2451      C2452   1.406       .  A
C2451      N2458   1.428       .  S
C2452      C2453   1.405       .  A
C2452      H2457   1.085       .  S
C2453      C2454   1.416       .  A
C2454      N2455   1.429       .  S
N2455      O2459   1.262       .  A
N2455      O2460   1.262       .  A
N2458      O2462   1.262       .  A
N2458      O2461   1.262       .  A
C2463      C2464   1.400       .  A
C2463      C2468   1.399   1_655  A
C2463      H2470   1.083       .  S
C2464      C2465   1.414       .  A
C2465      C2466   1.402   1_655  A
C2465      N2472   1.429       .  S
C2466      C2467   1.401       .  A
C2466      H2471   1.083       .  S
C2467      C2468   1.413       .  A
C2468      N2469   1.429       .  S
N2469      O2473   1.262       .  A
N2469      O2474   1.262       .  A
N2472      O2476   1.262       .  A
N2472      O2475   1.262       .  A
C2477      C2478   1.403       .  A
C2477      C2482   1.399       .  A
C2477      H2484   1.081       .  S
C2478      C2479   1.414       .  A
C2479      C2480   1.403       .  A
C2479      N2486   1.428       .  S
C2480      C2481   1.403       .  A
C2480      H2485   1.081       .  S
C2481      C2482   1.415       .  A
C2482      N2483   1.429       .  S
N2483      O2487   1.262       .  A
N2483      O2488   1.262       .  A
N2486      O2490   1.262       .  A
N2486      O2489   1.262       .  A
C2491      C2492   1.405       .  A
C2491      C2496   1.398       .  A
C2491      H2498   1.084       .  S
C2492      C2493   1.412       .  A
C2493      C2494   1.406       .  A
C2493      N2500   1.428       .  S
C2494      C2495   1.405       .  A
C2494      H2499   1.084       .  S
C2495      C2496   1.411       .  A
C2496      N2497   1.429       .  S
N2497      O2501   1.262       .  A
N2497      O2502   1.262       .  A
N2500      O2504   1.262       .  A
N2500      O2503   1.262       .  A
C2505      C2506   1.401       .  A
C2505      C2510   1.398       .  A
C2505      H2512   1.084       .  S
C2506      C2507   1.415       .  A
C2507      C2508   1.398       .  A
C2507      N2514   1.429       .  S
C2508      C2509   1.401       .  A
C2508      H2513   1.084       .  S
C2509      C2510   1.416       .  A
C2510      N2511   1.429       .  S
N2511      O2515   1.262       .  A
N2511      O2516   1.262       .  A
N2514      O2518   1.262       .  A
N2514      O2517   1.262       .  A
C2519      C2520   1.408       .  A
C2519      C2524   1.401       .  A
C2519      H2526   1.088       .  S
C2520      C2521   1.410       .  A
C2522      C2523   1.407       .  A
C2522      H2527   1.088       .  S
C2524      N2525   1.429       .  S
N2525      O2529   1.262       .  A
N2525      O2530   1.262       .  A
N2528      O2532   1.262       .  A
N2528      O2531   1.262       .  A
C2533      C2534   1.404       .  A
C2533      C2538   1.392       .  A
C2534      C2535   1.412       .  A
C2535      C2536   1.402       .  A
C2535      N2542   1.428       .  S
C2536      C2537   1.407       .  A
C2536      H2541   1.087       .  S
C2537      C2538   1.411       .  A
C2538      N2539   1.429       .  S
N2539      O2544   1.262       .  A
N2542      O2546   1.262       .  A
N2542      O2545   1.262       .  A
C2547      C2548   1.407       .  A
C2547      C2552   1.403       .  A
C2547      H2554   1.087       .  S
C2548      C2549   1.408       .  A
C2549      C2550   1.393       .  A
C2549      N2556   1.429       .  S
C2550      C2551   1.405       .  A
C2550      H2555   1.087       .  S
C2551      C2552   1.411       .  A
C2552      N2553   1.428       .  S
N2553      O2557   1.262       .  A
N2553      O2558   1.262       .  A
N2556      O2560   1.262       .  A
N2556      O2559   1.262       .  A
C2561      C2562   1.408       .  A
C2561      C2566   1.404       .  A
C2561      H2568   1.082       .  S
C2562      C2563   1.414   1_556  A
C2563      C2564   1.399   1_554  A
C2563      N2570   1.429       .  S
C2564      C2565   1.403       .  A
C2564      H2569   1.082       .  S
C2565      C2566   1.411       .  A
C2566      N2567   1.429       .  S
N2567      O2571   1.262       .  A
N2567      O2572   1.262       .  A
N2570      O2574   1.262       .  A
C2575      C2576   1.403   1_545  A
C2575      C2580   1.398       .  A
C2575      H2582   1.082       .  S
C2576      C2577   1.416       .  A
C2577      C2578   1.405       .  A
C2577      N2584   1.428       .  S
C2578      C2579   1.403   1_565  A
C2578      H2583   1.081       .  S
C2579      C2580   1.414       .  A
C2580      N2581   1.429       .  S
N2581      O2585   1.262       .  A
N2581      O2586   1.262       .  A
N2584      O2588   1.262       .  A
N2584      O2587   1.262       .  A
C2589      C2590   1.402       .  A
C2589      C2594   1.402       .  A
C2589      H2596   1.085       .  S
C2590      C2591   1.411       .  A
C2591      C2592   1.398       .  A
C2591      N2598   1.429       .  S
C2592      C2593   1.405       .  A
C2592      H2597   1.085       .  S
C2593      C2594   1.412       .  A
C2594      N2595   1.427       .  S
N2595      O2599   1.262       .  A
N2595      O2600   1.262       .  A
N2598      O2602   1.262       .  A
N2598      O2601   1.262       .  A
C2603      C2604   1.406       .  A
C2603      C2608   1.398       .  A
C2603      H2610   1.088       .  S
C2604      C2605   1.413       .  A
C2605      C2606   1.400       .  A
C2605      N2612   1.429       .  S
C2606      C2607   1.407       .  A
C2606      H2611   1.088       .  S
C2607      C2608   1.410       .  A
C2608      N2609   1.428       .  S
N2609      O2613   1.262       .  A
N2609      O2614   1.262       .  A
N2612      O2616   1.262       .  A
N2612      O2615   1.262       .  A
C2617      C2618   1.407       .  A
C2617      C2622   1.396       .  A
C2617      H2624   1.085       .  S
C2618      C2619   1.412       .  A
C2619      C2620   1.402       .  A
C2619      N2626   1.428       .  S
C2620      C2621   1.406       .  A
C2620      H2625   1.085       .  S
C2621      C2622   1.408       .  A
C2622      N2623   1.429       .  S
N2623      O2627   1.262       .  A
N2623      O2628   1.262       .  A
N2626      O2630   1.262       .  A
N2626      O2629   1.262       .  A
C2631      C2632   1.399       .  A
C2632      C2633   1.407       .  A
C2633      C2634   1.401       .  A
C2633      N2640   1.428       .  S
C2634      C2635   1.405       .  A
C2634      H2639   1.082   1_556  S
C2636      N2637   1.429       .  S
N2637      O2641   1.262       .  A
N2637      O2642   1.262       .  A
N2640      O2644   1.262   1_556  A
N2640      O2643   1.261       .  A
C2645      C2646   1.398       .  A
C2645      C2650   1.398       .  A
C2645      H2652   1.085       .  S
C2646      C2647   1.414       .  A
C2647      C2648   1.402       .  A
C2647      N2654   1.429       .  S
C2648      C2649   1.401       .  A
C2648      H2653   1.085       .  S
C2649      C2650   1.416       .  A
C2650      N2651   1.429       .  S
N2651      O2655   1.262       .  A
N2651      O2656   1.262       .  A
N2654      O2658   1.262       .  A
C2659      C2660   1.401       .  A
C2659      C2664   1.403       .  A
C2659      H2666   1.080       .  S
C2660      C2661   1.412       .  A
C2661      C2662   1.396       .  A
C2661      N2668   1.430       .  S
C2662      C2663   1.403       .  A
C2662      H2667   1.080       .  S
C2663      C2664   1.415       .  A
C2664      N2665   1.428       .  S
N2665      O2669   1.262       .  A
N2665      O2670   1.262       .  A
N2668      O2672   1.262       .  A
N2668      O2671   1.262       .  A
C2673      C2674   1.402   1_545  A
C2673      C2678   1.398       .  A
C2673      H2680   1.083       .  S
C2674      C2675   1.415       .  A
C2675      C2676   1.398       .  A
C2675      N2682   1.429       .  S
C2676      C2677   1.402   1_565  A
C2676      H2681   1.084       .  S
C2677      C2678   1.414       .  A
C2678      N2679   1.429       .  S
N2679      O2683   1.262       .  A
N2679      O2684   1.262       .  A
N2682      O2686   1.262       .  A
N2682      O2685   1.262       .  A
C2687      C2688   1.405       .  A
C2687      C2692   1.398       .  A
C2687      H2694   1.084       .  S
C2688      C2689   1.414       .  A
C2689      C2690   1.405       .  A
C2689      N2696   1.428       .  S
C2690      C2691   1.402       .  A
C2690      H2695   1.084       .  S
C2691      C2692   1.410       .  A
C2692      N2693   1.429       .  S
N2693      O2697   1.262       .  A
N2693      O2698   1.262       .  A
N2696      O2700   1.262       .  A
N2696      O2699   1.262       .  A
C2701      C2702   1.406       .  A
C2701      C2706   1.405   1_455  A
C2701      H2708   1.084       .  S
C2702      C2703   1.413       .  A
C2703      C2704   1.396   1_455  A
C2703      N2710   1.428       .  S
C2704      C2705   1.400       .  A
C2704      H2709   1.084       .  S
C2705      C2706   1.413       .  A
C2706      N2707   1.429       .  S
N2707      O2711   1.262       .  A
N2707      O2712   1.262       .  A
N2710      O2714   1.262       .  A
N2710      O2713   1.262       .  A
C2715      C2716   1.402       .  A
C2715      C2720   1.404       .  A
C2716      C2717   1.414       .  A
C2717      C2718   1.403       .  A
C2717      N2724   1.428       .  S
C2718      C2719   1.405       .  A
C2718      H2723   1.082       .  S
C2719      C2720   1.416       .  A
C2720      N2721   1.427       .  S
N2721      O2726   1.262       .  A
N2724      O2728   1.262       .  A
N2724      O2727   1.262       .  A
C2729      C2730   1.407       .  A
C2729      C2734   1.398       .  A
C2729      H2736   1.080       .  S
C2730      C2731   1.409       .  A
C2731      C2732   1.398       .  A
C2731      N2738   1.429       .  S
C2732      C2733   1.408       .  A
C2732      H2737   1.081       .  S
C2733      C2734   1.408       .  A
C2734      N2735   1.428       .  S
N2735      O2739   1.262       .  A
N2735      O2740   1.262       .  A
N2738      O2742   1.262       .  A
N2738      O2741   1.262       .  A
C2743      C2744   1.407       .  A
C2743      C2748   1.397       .  A
C2743      H2750   1.081       .  S
C2744      C2745   1.410       .  A
C2745      C2746   1.401       .  A
C2745      N2752   1.429       .  S
C2746      C2747   1.406       .  A
C2746      H2751   1.081       .  S
C2747      C2748   1.407       .  A
C2748      N2749   1.429       .  S
N2749      O2753   1.262       .  A
N2749      O2754   1.262       .  A
N2752      O2756   1.262       .  A
C2757      H2764   1.084       .  S
C2758      C2759   1.412       .  A
C2759      C2760   1.399       .  A
C2759      N2766   1.429       .  S
C2760      C2761   1.401       .  A
C2760      H2765   1.084       .  S
C2761      C2762   1.415       .  A
N2763      O2767   1.262       .  A
N2763      O2768   1.262       .  A
N2766      O2770   1.262       .  A
N2766      O2769   1.262       .  A
C2771      C2772   1.403       .  A
C2771      C2776   1.403       .  A
C2771      H2778   1.082       .  S
C2772      C2773   1.415       .  A
C2773      C2774   1.397       .  A
C2773      N2780   1.429       .  S
C2774      C2775   1.402       .  A
C2774      H2779   1.082       .  S
C2775      C2776   1.416       .  A
C2776      N2777   1.428       .  S
N2777      O2781   1.262       .  A
N2777      O2782   1.262       .  A
N2780      O2784   1.262       .  A
N2780      O2783   1.262       .  A
C2785      C2786   1.408       .  A
C2785      C2790   1.400       .  A
C2785      H2792   1.081   1_556  S
C2786      C2787   1.409       .  A
C2787      C2788   1.395       .  A
C2787      N2794   1.429       .  S
C2788      C2789   1.407       .  A
C2788      H2793   1.081       .  S
C2789      C2790   1.409       .  A
C2790      N2791   1.428       .  S
N2791      O2795   1.262       .  A
N2791      O2796   1.262       .  A
N2794      O2797   1.262       .  A
C2799      C2800   1.403       .  A
C2799      C2804   1.402       .  A
C2799      H2806   1.083       .  S
C2800      C2801   1.417       .  A
C2801      C2802   1.404       .  A
C2801      N2808   1.429       .  S
C2802      C2803   1.404       .  A
C2802      H2807   1.083       .  S
C2803      C2804   1.415       .  A
C2804      N2805   1.428       .  S
N2805      O2809   1.262       .  A
N2805      O2810   1.262       .  A
N2808      O2812   1.262       .  A
N2808      O2811   1.262       .  A
C2813      C2814   1.406       .  A
C2813      C2818   1.395       .  A
C2813      H2820   1.084       .  S
C2814      C2815   1.415       .  A
C2815      C2816   1.406       .  A
C2815      N2822   1.428       .  S
C2816      C2817   1.404       .  A
C2816      H2821   1.084       .  S
C2817      C2818   1.407       .  A
N2819      O2823   1.262       .  A
N2819      O2824   1.262       .  A
N2822      O2826   1.262       .  A
N2822      O2825   1.262       .  A
C2827      C2828   1.402       .  A
C2827      C2832   1.399       .  A
C2827      H2834   1.084       .  S
C2828      C2829   1.416       .  A
C2829      C2830   1.401       .  A
C2829      N2836   1.429       .  S
C2830      C2831   1.399       .  A
C2830      H2835   1.084       .  S
C2831      C2832   1.410       .  A
C2832      N2833   1.428       .  S
N2833      O2837   1.262       .  A
N2833      O2838   1.262       .  A
N2836      O2840   1.262       .  A
N2836      O2839   1.262       .  A
C2841      C2842   1.404       .  A
C2841      C2846   1.400       .  A
C2841      H2848   1.084       .  S
C2842      C2843   1.417       .  A
C2843      C2844   1.403       .  A
C2843      N2850   1.428       .  S
C2844      C2845   1.402       .  A
C2844      H2849   1.084       .  S
C2845      C2846   1.415       .  A
C2846      N2847   1.430       .  S
N2847      O2851   1.262       .  A
N2847      O2852   1.262       .  A
N2850      O2854   1.262       .  A
N2850      O2853   1.262       .  A
C2855      C2856   1.400       .  A
C2855      C2860   1.399       .  A
C2855      H2862   1.086       .  S
C2856      C2857   1.411       .  A
C2857      C2858   1.404       .  A
C2857      N2864   1.428       .  S
C2858      C2859   1.404       .  A
C2858      H2863   1.086       .  S
C2859      C2860   1.415       .  A
C2860      N2861   1.429       .  S
N2861      O2865   1.262       .  A
N2861      O2866   1.262       .  A
N2864      O2868   1.262       .  A
N2864      O2867   1.262       .  A
C2869      C2874   1.401       .  A
C2869      H2876   1.083       .  S
C2870      C2871   1.416   1_556  A
C2871      N2878   1.427       .  S
C2872      C2873   1.398       .  A
C2872      H2877   1.083       .  S
C2873      C2874   1.412       .  A
C2874      N2875   1.430       .  S
N2875      O2879   1.262       .  A
N2875      O2880   1.262       .  A
N2878      O2882   1.262   1_554  A
N2878      O2881   1.262       .  A
C2883      C2884   1.404       .  A
C2883      C2888   1.399       .  A
C2883      H2890   1.082       .  S
C2884      C2885   1.416       .  A
C2885      C2886   1.399       .  A
C2885      N2892   1.428       .  S
C2886      C2887   1.398       .  A
C2886      H2891   1.082       .  S
C2887      C2888   1.415       .  A
C2888      N2889   1.430       .  S
N2889      O2893   1.262       .  A
N2889      O2894   1.262       .  A
N2892      O2896   1.262       .  A
N2892      O2895   1.262       .  A
C2897      C2898   1.404       .  A
C2897      C2902   1.405   1_565  A
C2897      H2904   1.085       .  S
C2898      C2899   1.409       .  A
C2899      C2900   1.393   1_565  A
C2899      N2906   1.429       .  S
C2900      C2901   1.402       .  A
C2900      H2905   1.086       .  S
C2901      C2902   1.413       .  A
C2902      N2903   1.428       .  S
N2903      O2907   1.262       .  A
N2903      O2908   1.262       .  A
N2906      O2910   1.262       .  A
N2906      O2909   1.262       .  A
C2911      C2912   1.404       .  A
C2911      C2916   1.397       .  A
C2911      H2918   1.083       .  S
C2912      C2913   1.417       .  A
C2913      C2914   1.400       .  A
C2913      N2920   1.428       .  S
C2914      C2915   1.399       .  A
C2914      H2919   1.083       .  S
C2915      C2916   1.412       .  A
C2916      N2917   1.429       .  S
N2917      O2921   1.262       .  A
N2917      O2922   1.262       .  A
N2920      O2924   1.262       .  A
N2920      O2923   1.262       .  A
C2925      C2926   1.399       .  A
C2925      C2930   1.394       .  A
C2925      H2932   1.083       .  S
C2926      C2927   1.416       .  A
C2927      C2928   1.401       .  A
C2927      N2934   1.429       .  S
C2928      C2929   1.402       .  A
C2928      H2933   1.082       .  S
C2929      C2930   1.415       .  A
C2930      N2931   1.429       .  S
N2931      O2935   1.262       .  A
N2931      O2936   1.262       .  A
N2934      O2938   1.262       .  A
N2934      O2937   1.262       .  A
C2939      C2940   1.409       .  A
C2939      C2944   1.405       .  A
C2939      H2946   1.079       .  S
C2940      C2941   1.411       .  A
C2941      C2942   1.400       .  A
C2941      N2948   1.428       .  S
C2942      C2943   1.405       .  A
C2942      H2947   1.079       .  S
C2943      C2944   1.411       .  A
N2945      O2949   1.262       .  A
N2945      O2950   1.262       .  A
N2948      O2952   1.262       .  A
N2948      O2951   1.262       .  A
