geometry optimzed in LAMMPS
_audit_creation_date              2020-12-01 
_audit_creation_method            'lammps2cif' 
_symmetry_space_group_name_H-M    'P1' 
_symmetry_Int_Tables_number       1 
_symmetry_cell_setting            triclinic 
loop_ 
_symmetry_equiv_pos_as_xyz 
  x,y,z 
_cell_length_a                    44.12772592 
_cell_length_b                    44.15514473140581 
_cell_length_c                    28.0960436855741 
_cell_angle_alpha                 90.03031385438481 
_cell_angle_beta                  90.04943995084594 
_cell_angle_gamma                 119.95681686913008 
loop_ 
_atom_site_label 
_atom_site_type_symbol 
_atom_site_fract_x 
_atom_site_fract_y 
_atom_site_fract_z 
_atom_site_charge 
O1          O  0.35188946  0.40461536  0.29274580    -0.74200
O2          O  0.37789427  0.37593066  0.41490323    -0.75200
O3          O  0.41005562  0.43525989  0.35429882    -0.63800
O4          O  0.31882386  0.34491540  0.35258833    -0.72200
O5          O  0.34416903  0.31940092  0.31441892    -0.71800
O6          O  0.43472951  0.41055090  0.31275283    -0.63000
O7          O  0.40406635  0.35246582  0.37404440    -0.75500
O8          O  0.37533325  0.37835721  0.25207411    -0.74300
Cu9        Cu  0.36366895  0.39089242  0.35511327     1.04600
Cu10       Cu  0.39027516  0.36419323  0.31184360     1.04300
C11         C  0.36017839  0.39661727  0.25303779     0.92000
C12         C  0.39615151  0.36076649  0.41378228     0.91100
C13         C  0.43674193  0.43724729  0.33354073     0.83300
C14         C  0.31716704  0.31784961  0.33354341     0.89500
O15         O  0.06908195  0.09411629  0.31193164    -0.74200
O16         O  0.15953257  0.18534783  0.31358280    -0.75200
O17         O  0.12905755  0.12565223  0.25238085    -0.63800
O18         O  0.09874177  0.15263006  0.37231355    -0.72200
O19         O  0.12468243  0.12970813  0.41493469    -0.71800
O20         O  0.15211815  0.09986760  0.29505291    -0.63000
O21         O  0.18449117  0.16049932  0.35412140    -0.75500
O22         O  0.09352923  0.06985815  0.35508145    -0.74300
Cu23       Cu  0.11345757  0.14046851  0.31100450     1.04600
Cu24       Cu  0.13974041  0.11434995  0.35634180     1.04300
C25         C  0.06703532  0.06768493  0.33346929     0.92000
C26         C  0.18639432  0.18731547  0.33388909     0.91100
C27         C  0.14393220  0.10716740  0.25476425     0.83300
C28         C  0.10607671  0.14445814  0.41258946     0.89500
O29         O  0.02560387  0.34355205  0.64724733    -0.74200
O30         O  0.02521972  0.43414345  0.64590917    -0.75200
O31         O  0.05348867  0.40396800  0.70653830    -0.63800
O32         O  0.99686787  0.37433931  0.58601739    -0.72200
O33         O  0.44780131  0.35117391  0.62809983    -0.71800
O34         O  0.50438257  0.37832653  0.74852046    -0.63000
O35         O  0.47615600  0.40979115  0.68817891    -0.75500
O36         O  0.47568018  0.31869622  0.68740078    -0.74300
Cu37       Cu  0.02698117  0.38966187  0.64490681     1.04600
Cu38       Cu  0.47432987  0.36348594  0.68959052     1.04300
C39         C  0.00062082  0.31673533  0.66730428     0.92000
C40         C  0.00067718  0.43624567  0.66690961     0.91100
C41         C  0.03775522  0.39658505  0.74661870     0.83300
C42         C  0.46349928  0.35937992  0.58801519     0.89500
O43         O  0.99795155  0.12531744  0.74808119    -0.74200
O44         O  0.05276420  0.15136170  0.62616875    -0.75200
O45         O  0.02593200  0.18439454  0.68596605    -0.63800
O46         O  0.02516801  0.09319957  0.68736064    -0.72200
O47         O  0.47606896  0.06872287  0.64514580    -0.71800
O48         O  0.47507722  0.15904524  0.64772817    -0.63000
O49         O  0.50324597  0.12827387  0.58503344    -0.75500
O50         O  0.44839537  0.09895058  0.70700680    -0.74300
Cu51       Cu  0.02715357  0.13957697  0.68837298     1.04600
Cu52       Cu  0.47398673  0.11306353  0.64474691     1.04300
C53         C  0.46456906  0.10683343  0.74683310     0.92000
C54         C  0.03664313  0.14320249  0.58631054     0.91100
C55         C  0.00049276  0.18603616  0.66691873     0.83300
C56         C  0.00063946  0.06661872  0.66616905     0.89500
O57         O  0.35061693  0.44818320  0.03849979    -0.74200
O58         O  0.37786125  0.50535594  0.91882237    -0.75200
O59         O  0.40931804  0.47704216  0.97878263    -0.63800
O60         O  0.31800056  0.47612843  0.97952796    -0.72200
O61         O  0.34295699  0.02638156  0.01910831    -0.71800
O62         O  0.43318476  0.02531414  0.02272128    -0.63000
O63         O  0.40400293  0.05423996  0.96131389    -0.75500
O64         O  0.37278931  0.99697396  0.08117742    -0.74300
Cu65       Cu  0.36293839  0.47500992  0.97734175     1.04600
Cu66       Cu  0.38888285  0.02740877  0.02262650     1.04300
C67         C  0.35830449  0.46366666  0.07878675     0.92000
C68         C  0.39645568  0.03868402  0.92105293     0.91100
C69         C  0.43554581  0.00113684  0.00105394     0.83300
C70         C  0.31613978  0.00127083  0.99915059     0.89500
O71         O  0.15870524  0.47622153  0.02023308    -0.74200
O72         O  0.06790917  0.47628668  0.02218628    -0.75200
O73         O  0.09846511  0.44881700  0.96078240    -0.63800
O74         O  0.12750000  0.50414251  0.08248456    -0.72200
O75         O  0.15098557  0.05356225  0.04131607    -0.71800
O76         O  0.12391833  0.99828342  0.91965582    -0.63000
O77         O  0.09237855  0.02579242  0.98095340    -0.75500
O78         O  0.18353146  0.02646248  0.98084995    -0.74300
Cu79       Cu  0.11248009  0.47467031  0.02291886     1.04600
Cu80       Cu  0.13869973  0.02771660  0.97920505     1.04300
C81         C  0.18548572  0.00134855  0.00032895     0.92000
C82         C  0.06583087  0.00102480  0.00173271     0.91100
C83         C  0.10584702  0.46489686  0.92096387     0.83300
C84         C  0.14262355  0.03752520  0.08117093     0.89500
C85         C  0.00068134  0.03263114  0.00527240    -0.14600
C86         C  0.46884312  0.00106328  0.00172956     0.07500
C87         C  0.46908622  0.46944246  0.99868933    -0.14600
C88         C  0.00070200  0.46938442  0.99955601    -0.14600
C89         C  0.03252482  0.00100345  0.00208594     0.07500
C90         C  0.03232312  0.03263236  0.00474806    -0.14600
H91         H  0.00110273  0.05732762  0.00757170     0.11500
H92         H  0.44481121  0.44477408  0.99619504     0.11500
H93         H  0.00033813  0.44471188  0.99732010     0.11500
H94         H  0.05662900  0.05729036  0.00702908     0.11500
C95         C  0.28248379  0.03289735  0.99663892    -0.14600
C96         C  0.28275422  0.00127690  0.99895811     0.07500
C97         C  0.25089717  0.46968281  0.00149913    -0.14600
C98         C  0.21925605  0.46973971  0.00258149    -0.14600
C99         C  0.21892106  0.00133550  0.99977923     0.07500
C100        C  0.25080593  0.03290006  0.99637740    -0.14600
H101        H  0.30676946  0.05756808  0.99441999     0.11500
H102        H  0.25051253  0.44499701  0.00352448     0.11500
H103        H  0.19501645  0.44504634  0.00500575     0.11500
H104        H  0.25125572  0.05761307  0.99426664     0.11500
C105        C  0.41185145  0.06196582  0.79043543    -0.14600
C106        C  0.44469788  0.09265570  0.79149565     0.07500
C107        C  0.45967333  0.10737770  0.83574645    -0.14600
C108        C  0.44278089  0.09092862  0.87807510    -0.14600
C109        C  0.41101298  0.05904900  0.87689301     0.07500
C110        C  0.39536880  0.04511673  0.83269949    -0.14600
H111        H  0.39974213  0.04990977  0.75686348     0.11500
H112        H  0.48492772  0.13102760  0.83761778     0.11500
H113        H  0.45553967  0.10215369  0.91166739     0.11500
H114        H  0.37088007  0.02062529  0.83078089     0.11500
C115        C  0.04424064  0.39537717  0.83501975    -0.14600
C116        C  0.05805081  0.41110418  0.79088559     0.07500
C117        C  0.08976373  0.44301331  0.78979538    -0.14600
C118        C  0.10618846  0.45996825  0.83213618    -0.14600
C119        C  0.09163020  0.44491804  0.87633888     0.07500
C120        C  0.06110712  0.41193386  0.87734212    -0.14600
H121        H  0.51986241  0.37078713  0.83683143     0.11500
H122        H  0.10085964  0.45584481  0.75624598     0.11500
H123        H  0.12969088  0.48532383  0.83031320     0.11500
H124        H  0.04918709  0.39977662  0.91090318     0.11500
C125        C  0.03185400  0.28270919  0.66050050    -0.14600
C126        C  0.00057598  0.28325405  0.66722240     0.07500
C127        C  0.46925186  0.25151254  0.67380842    -0.14600
C128        C  0.46915700  0.21980632  0.67306496    -0.14600
C129        C  0.00050164  0.21938293  0.66703006     0.07500
C130        C  0.03187997  0.25106683  0.66106187    -0.14600
H131        H  0.05637888  0.30679321  0.65543004     0.11500
H132        H  0.44476168  0.25117248  0.67891438     0.11500
H133        H  0.44467926  0.19563089  0.67794843     0.11500
H134        H  0.05632299  0.25127693  0.65608759     0.11500
C135        C  0.46930632  0.46982696  0.66020074    -0.14600
C136        C  0.00066693  0.46950254  0.66656132     0.07500
C137        C  0.03202699  0.00116688  0.67254017    -0.14600
C138        C  0.03197150  0.03277607  0.67295626    -0.14600
C139        C  0.00066328  0.03323033  0.66606269     0.07500
C140        C  0.46936073  0.00149325  0.65926887    -0.14600
H141        H  0.44486610  0.44560948  0.65524163     0.11500
H142        H  0.05646474  0.00137685  0.67768644     0.11500
H143        H  0.05646765  0.05689107  0.67810207     0.11500
H144        H  0.44486849  0.00113324  0.65397395     0.11500
C145        C  0.10707442  0.15286625  0.50079876    -0.14600
C146        C  0.09105479  0.14993655  0.45654737     0.07500
C147        C  0.05845403  0.14836613  0.45511389    -0.14600
C148        C  0.04122129  0.14757099  0.49728777    -0.14600
C149        C  0.05664243  0.14912768  0.54166106     0.07500
C150        C  0.09022274  0.15289601  0.54291800    -0.14600
H151        H  0.13218097  0.15411809  0.50286902     0.11500
H152        H  0.04537062  0.14577209  0.42144845     0.11500
H153        H  0.01539810  0.14467026  0.49520902     0.11500
H154        H  0.10273037  0.15400271  0.57657863     0.11500
C155        C  0.15298835  0.09140493  0.12455453    -0.14600
C156        C  0.14858057  0.05758277  0.12581494     0.07500
C157        C  0.14639320  0.04196627  0.17018070    -0.14600
C158        C  0.14721562  0.05924680  0.21232043    -0.14600
C159        C  0.14944116  0.09211490  0.21087083     0.07500
C160        C  0.15298068  0.10832818  0.16666398    -0.14600
H161        H  0.15458587  0.10406448  0.09089602     0.11500
H162        H  0.14296675  0.01595114  0.17227564     0.11500
H163        H  0.14410887  0.04601132  0.24594431     0.11500
H164        H  0.15472854  0.13364308  0.16461305     0.11500
C165        C  0.43988356  0.35104729  0.45752843    -0.14600
C166        C  0.40997609  0.35465025  0.45848817     0.07500
C167        C  0.39571263  0.35581167  0.50265796    -0.14600
C168        C  0.41195076  0.35494420  0.54499220    -0.14600
C169        C  0.44315970  0.35371262  0.54388620     0.07500
C170        C  0.45656990  0.35101234  0.49982444    -0.14600
H171        H  0.45153118  0.35018769  0.42399239     0.11500
H172        H  0.37266136  0.35850145  0.50445625     0.11500
H173        H  0.40119055  0.35729184  0.57853425     0.11500
H174        H  0.48053911  0.34996682  0.49804860     0.11500
C175        C  0.00198851  0.47101594  0.32875134    -0.14600
C176        C  0.47011751  0.47063893  0.33354474     0.07500
C177        C  0.47040015  0.00244816  0.33833565    -0.14600
C178        C  0.00198520  0.03411476  0.33759627    -0.14600
C179        C  0.03379423  0.03439278  0.33344769     0.07500
C180        C  0.03362262  0.00264321  0.32937872    -0.14600
H181        H  0.00246089  0.44682737  0.32518804     0.11500
H182        H  0.44616878  0.00284873  0.34195522     0.11500
H183        H  0.00163178  0.05837694  0.34103783     0.11500
H184        H  0.05793466  0.00237028  0.32593177     0.11500
C185        C  0.28336793  0.25286004  0.34049404    -0.14600
C186        C  0.28379630  0.28454494  0.33366711     0.07500
C187        C  0.25209880  0.28418171  0.32703807    -0.14600
C188        C  0.22043824  0.25252857  0.32650433    -0.14600
C189        C  0.21988459  0.22077604  0.33391703     0.07500
C190        C  0.25164517  0.22127935  0.34126834    -0.14600
H191        H  0.30754263  0.25260925  0.34595765     0.11500
H192        H  0.25189429  0.30836260  0.32150497     0.11500
H193        H  0.19635885  0.25292458  0.32087389     0.11500
H194        H  0.25200140  0.19719817  0.34697577     0.11500
C195        C  0.35621294  0.41324318  0.12163676    -0.14600
C196        C  0.35275835  0.44319484  0.12268779     0.07500
C197        C  0.34807180  0.45542156  0.16660767    -0.14600
C198        C  0.34826404  0.43882715  0.20891124    -0.14600
C199        C  0.35400919  0.41022874  0.20811949     0.07500
C200        C  0.35720971  0.39712998  0.16397439    -0.14600
H201        H  0.36019779  0.40347880  0.08822055     0.11500
H202        H  0.34532030  0.47843364  0.16830065     0.11500
H203        H  0.34576767  0.44956400  0.24237952     0.11500
H204        H  0.36162367  0.37513425  0.16221576     0.11500
O205        O  0.35189110  0.90461642  0.29273540    -0.74200
O206        O  0.37788443  0.87593085  0.41490229    -0.75200
O207        O  0.41005362  0.93525933  0.35429672    -0.63800
O208        O  0.31881892  0.84491835  0.35258016    -0.72200
O209        O  0.34416359  0.81940140  0.31441549    -0.71800
O210        O  0.43472851  0.91054756  0.31275946    -0.63000
O211        O  0.40405487  0.85246121  0.37405051    -0.75500
O212        O  0.37533716  0.87835768  0.25207046    -0.74300
Cu213      Cu  0.36366522  0.89089352  0.35510743     1.04600
Cu214      Cu  0.39027172  0.86419144  0.31184525     1.04300
C215        C  0.36018279  0.89661830  0.25302945     0.92000
C216        C  0.39613828  0.86076298  0.41378629     0.91100
C217        C  0.43674112  0.93724505  0.33354442     0.83300
C218        C  0.31716156  0.81785182  0.33353717     0.89500
O219        O  0.06907924  0.59411942  0.31191884    -0.74200
O220        O  0.15952706  0.68535219  0.31357633    -0.75200
O221        O  0.12905884  0.62565646  0.25237506    -0.63800
O222        O  0.09873280  0.65263267  0.37230192    -0.72200
O223        O  0.12467341  0.62971258  0.41492711    -0.71800
O224        O  0.15211907  0.59987471  0.29505416    -0.63000
O225        O  0.18448462  0.66050535  0.35412126    -0.75500
O226        O  0.09352572  0.56986310  0.35507415    -0.74300
Cu227      Cu  0.11345349  0.64047207  0.31099502     1.04600
Cu228      Cu  0.13973561  0.61435560  0.35633847     1.04300
C229        C  0.06703253  0.56768879  0.33345848     0.92000
C230        C  0.18638801  0.68732064  0.33388613     0.91100
C231        C  0.14393566  0.60717372  0.25476333     0.83300
C232        C  0.10606707  0.64446168  0.41257912     0.89500
O233        O  0.02558802  0.84354639  0.64724274    -0.74200
O234        O  0.02520054  0.93413560  0.64591532    -0.75200
O235        O  0.05347529  0.90396122  0.70653351    -0.63800
O236        O  0.99684608  0.87433235  0.58602235    -0.72200
O237        O  0.44778156  0.85116552  0.62810975    -0.71800
O238        O  0.50437237  0.87831940  0.74852284    -0.63000
O239        O  0.47613906  0.90978247  0.68819026    -0.75500
O240        O  0.47566729  0.81868921  0.68740285    -0.74300
Cu241      Cu  0.02696330  0.88965509  0.64490699     1.04600
Cu242      Cu  0.47431486  0.86347798  0.68959724     1.04300
C243        C  0.00060727  0.81672939  0.66730240     0.92000
C244        C  0.00065922  0.93623731  0.66692017     0.91100
C245        C  0.03774493  0.89657834  0.74661597     0.83300
C246        C  0.46347754  0.85937194  0.58802370     0.89500
O247        O  0.99796008  0.62531834  0.74808268    -0.74200
O248        O  0.05276354  0.65136728  0.62616183    -0.75200
O249        O  0.02593094  0.68439592  0.68596645    -0.63800
O250        O  0.02517753  0.59320539  0.68735381    -0.72200
O251        O  0.47607394  0.56872419  0.64514898    -0.71800
O252        O  0.47507432  0.65904258  0.64773316    -0.63000
O253        O  0.50324196  0.62827285  0.58503382    -0.75500
O254        O  0.44840109  0.59894969  0.70701484    -0.74300
Cu255      Cu  0.02715773  0.63958060  0.68836997     1.04600
Cu256      Cu  0.47398760  0.61306262  0.64475150     1.04300
C257        C  0.46457766  0.60683249  0.74683893     0.92000
C258        C  0.03663935  0.64320504  0.58630591     0.91100
C259        C  0.00048964  0.68603502  0.66692128     0.83300
C260        C  0.00064821  0.56662305  0.66616564     0.89500
O261        O  0.35061773  0.94818514  0.03848889    -0.74200
O262        O  0.37784759  0.00536122  0.91881379    -0.75200
O263        O  0.40931179  0.97704776  0.97875956    -0.63800
O264        O  0.31799271  0.97612917  0.97953084    -0.72200
O265        O  0.34296269  0.52638023  0.01910653    -0.71800
O266        O  0.43318831  0.52531023  0.02274075    -0.63000
O267        O  0.40401291  0.55423553  0.96132117    -0.75500
O268        O  0.37278828  0.49697284  0.08118645    -0.74300
Cu269      Cu  0.36293152  0.97501342  0.97733182     1.04600
Cu270      Cu  0.38888731  0.52740606  0.02263474     1.04300
C271        C  0.35830749  0.96366797  0.07877634     0.92000
C272        C  0.39646891  0.53867876  0.92106086     0.91100
C273        C  0.43555063  0.50113183  0.00107880     0.83300
C274        C  0.31614674  0.50127039  0.99914534     0.89500
O275        O  0.15869507  0.97621921  0.02023142    -0.74200
O276        O  0.06789860  0.97628509  0.02216283    -0.75200
O277        O  0.09846065  0.94881566  0.96077082    -0.63800
O278        O  0.12748295  0.00413811  0.08247321    -0.72200
O279        O  0.15099747  0.55356523  0.04132457    -0.71800
O280        O  0.12392086  0.49828483  0.91966746    -0.63000
O281        O  0.09238415  0.52579282  0.98097425    -0.75500
O282        O  0.18353899  0.52646534  0.98085255    -0.74300
Cu283      Cu  0.11246935  0.97466792  0.02290677     1.04600
Cu284      Cu  0.13870637  0.52771841  0.97921585     1.04300
C285        C  0.18549438  0.50135109  0.00032846     0.92000
C286        C  0.06583882  0.50102552  0.00175826     0.91100
C287        C  0.10584436  0.96489536  0.92095234     0.83300
C288        C  0.14263937  0.53752959  0.08118032     0.89500
C289        C  0.00068591  0.53262753  0.00530764    -0.14600
C290        C  0.46884843  0.50105903  0.00176104     0.07500
C291        C  0.46907928  0.96944588  0.99865837    -0.14600
C292        C  0.00069415  0.96938616  0.99952483    -0.14600
C293        C  0.03253193  0.50100250  0.00211784     0.07500
C294        C  0.03232856  0.53263038  0.00478370    -0.14600
H295        H  0.00110622  0.55732335  0.00760783     0.11500
H296        H  0.44480343  0.94477785  0.99616653     0.11500
H297        H  0.00032899  0.94471289  0.99729113     0.11500
H298        H  0.05663378  0.55728888  0.00706603     0.11500
C299        C  0.28249226  0.53289951  0.99665864    -0.14600
C300        C  0.28276142  0.50127739  0.99894831     0.07500
C301        C  0.25089124  0.96968320  0.00153815    -0.14600
C302        C  0.21924975  0.96973958  0.00261848    -0.14600
C303        C  0.21892911  0.50133753  0.99977317     0.07500
C304        C  0.25081494  0.53290329  0.99639888    -0.14600
H305        H  0.30677875  0.55757126  0.99446304     0.11500
H306        H  0.25050816  0.94499896  0.00358654     0.11500
H307        H  0.19501136  0.94504703  0.00506471     0.11500
H308        H  0.25126558  0.55761759  0.99431261     0.11500
C309        C  0.41186209  0.56196382  0.79044402    -0.14600
C310        C  0.44470974  0.59265242  0.79150344     0.07500
C311        C  0.45968883  0.60737094  0.83575413    -0.14600
C312        C  0.44279793  0.59092057  0.87808304    -0.14600
C313        C  0.41102792  0.55904308  0.87690113     0.07500
C314        C  0.39538108  0.54511340  0.83270818    -0.14600
H315        H  0.39975005  0.54991022  0.75687241     0.11500
H316        H  0.48494437  0.63101946  0.83762500     0.11500
H317        H  0.45555878  0.60214329  0.91167509     0.11500
H318        H  0.37089066  0.52062345  0.83078995     0.11500
C319        C  0.04424084  0.89536949  0.83501408    -0.14600
C320        C  0.05804415  0.91109890  0.79087917     0.07500
C321        C  0.08975303  0.94301191  0.78978518    -0.14600
C322        C  0.10618000  0.95996817  0.83212406    -0.14600
C323        C  0.09162798  0.94491574  0.87632806     0.07500
C324        C  0.06110956  0.91192772  0.87733435    -0.14600
H325        H  0.51986583  0.87077637  0.83682827     0.11500
H326        H  0.10084327  0.95584517  0.75623483     0.11500
H327        H  0.12967873  0.98532677  0.83029866     0.11500
H328        H  0.04919439  0.89976847  0.91089632     0.11500
C329        C  0.03184370  0.78270657  0.66049472    -0.14600
C330        C  0.00056488  0.78324927  0.66722005     0.07500
C331        C  0.46924268  0.75150687  0.67381093    -0.14600
C332        C  0.46915036  0.71980182  0.67306924    -0.14600
C333        C  0.00049590  0.71938066  0.66703150     0.07500
C334        C  0.03187245  0.75106554  0.66105798    -0.14600
H335        H  0.05636735  0.80679142  0.65542049     0.11500
H336        H  0.44475194  0.75116512  0.67891971     0.11500
H337        H  0.44467411  0.69562582  0.67795639     0.11500
H338        H  0.05631598  0.75127741  0.65608101     0.11500
C339        C  0.46929185  0.96982133  0.66019881    -0.14600
C340        C  0.00064987  0.96949435  0.66657541     0.07500
C341        C  0.03204460  0.50117698  0.67251114    -0.14600
C342        C  0.03198678  0.53278517  0.67293051    -0.14600
C343        C  0.00067534  0.53323629  0.66605505     0.07500
C344        C  0.46937252  0.50149753  0.65927415    -0.14600
H345        H  0.44485230  0.94560511  0.65522831     0.11500
H346        H  0.05648455  0.50138933  0.67764476     0.11500
H347        H  0.05648323  0.55690164  0.67806528     0.11500
H348        H  0.44487806  0.50113517  0.65399281     0.11500
C349        C  0.10707061  0.65288039  0.50078570    -0.14600
C350        C  0.09104498  0.64994051  0.45653629     0.07500
C351        C  0.05843933  0.64835939  0.45510575    -0.14600
C352        C  0.04120813  0.64756387  0.49728150    -0.14600
C353        C  0.05663565  0.64913079  0.54165330     0.07500
C354        C  0.09022036  0.65290975  0.54290648    -0.14600
H355        H  0.13218088  0.65414042  0.50285344     0.11500
H356        H  0.04535143  0.64575704  0.42144178     0.11500
H357        H  0.01538139  0.64465464  0.49520552     0.11500
H358        H  0.10273310  0.65402455  0.57656550     0.11500
C359        C  0.15300359  0.59141069  0.12455822    -0.14600
C360        C  0.14859761  0.55758923  0.12582253     0.07500
C361        C  0.14641042  0.54197495  0.17018987    -0.14600
C362        C  0.14722907  0.55925609  0.21232726    -0.14600
C363        C  0.14945042  0.59212231  0.21087327     0.07500
C364        C  0.15299191  0.60833434  0.16666514    -0.14600
H365        H  0.15460152  0.60406880  0.09089847     0.11500
H366        H  0.14298581  0.51596066  0.17228772     0.11500
H367        H  0.14412181  0.54602204  0.24595237     0.11500
H368        H  0.15473746  0.63364806  0.16461099     0.11500
C369        C  0.43985681  0.85102695  0.45753929    -0.14600
C370        C  0.40995738  0.85464375  0.45849541     0.07500
C371        C  0.39569834  0.85581637  0.50266389    -0.14600
C372        C  0.41193426  0.85494777  0.54499995    -0.14600
C373        C  0.44313656  0.85370362  0.54389624     0.07500
C374        C  0.45654108  0.85099092  0.49983656    -0.14600
H375        H  0.45150068  0.85015779  0.42400472     0.11500
H376        H  0.37265299  0.85851658  0.50445966     0.11500
H377        H  0.40117893  0.85730507  0.57854046     0.11500
H378        H  0.48050501  0.84993528  0.49806304     0.11500
C379        C  0.00198817  0.97101299  0.32874410    -0.14600
C380        C  0.47011804  0.97063619  0.33355146     0.07500
C381        C  0.47039749  0.50245073  0.33831212    -0.14600
C382        C  0.00198197  0.53411785  0.33757009    -0.14600
C383        C  0.03379205  0.53439629  0.33343613     0.07500
C384        C  0.03362216  0.50264674  0.32938368    -0.14600
H385        H  0.00245941  0.94682461  0.32516736     0.11500
H386        H  0.44616502  0.50285057  0.34192055     0.11500
H387        H  0.00162715  0.55837992  0.34099890     0.11500
H388        H  0.05793503  0.50237406  0.32594852     0.11500
C389        C  0.28336100  0.75286322  0.34049320    -0.14600
C390        C  0.28379043  0.78454809  0.33366109     0.07500
C391        C  0.25209367  0.78418575  0.32702867    -0.14600
C392        C  0.22043266  0.75253321  0.32649621    -0.14600
C393        C  0.21987810  0.72078074  0.33391383     0.07500
C394        C  0.25163792  0.72128330  0.34126876    -0.14600
H395        H  0.30753529  0.75261193  0.34595998     0.11500
H396        H  0.25189017  0.80836688  0.32149199     0.11500
H397        H  0.19635376  0.75292959  0.32086276     0.11500
H398        H  0.25199330  0.69720198  0.34697988     0.11500
C399        C  0.35623329  0.91325207  0.12162596    -0.14600
C400        C  0.35276521  0.94319594  0.12267629     0.07500
C401        C  0.34806688  0.95541513  0.16659500    -0.14600
C402        C  0.34825931  0.93882073  0.20889853    -0.14600
C403        C  0.35401663  0.91022997  0.20810852     0.07500
C404        C  0.35723022  0.89713901  0.16396397    -0.14600
H405        H  0.36022762  0.90349398  0.08821062     0.11500
H406        H  0.34530488  0.97842118  0.16828725     0.11500
H407        H  0.34575238  0.94955151  0.24236593     0.11500
H408        H  0.36165390  0.87514932  0.16220622     0.11500
O409        O  0.85188941  0.40461533  0.29274576    -0.74200
O410        O  0.87789425  0.37593065  0.41490325    -0.75200
O411        O  0.91005558  0.43525991  0.35429881    -0.63800
O412        O  0.81882383  0.34491539  0.35258828    -0.72200
O413        O  0.84416905  0.31940093  0.31441895    -0.71800
O414        O  0.93472945  0.41055091  0.31275281    -0.63000
O415        O  0.90406634  0.35246583  0.37404439    -0.75500
O416        O  0.87533319  0.37835719  0.25207404    -0.74300
Cu417      Cu  0.86366890  0.39089241  0.35511327     1.04600
Cu418      Cu  0.89027512  0.36419323  0.31184357     1.04300
C419        C  0.86017832  0.39661725  0.25303774     0.92000
C420        C  0.89615152  0.36076650  0.41378227     0.91100
C421        C  0.93674189  0.43724730  0.33354073     0.83300
C422        C  0.81716704  0.31784961  0.33354341     0.89500
O423        O  0.56908200  0.09411628  0.31193159    -0.74200
O424        O  0.65953256  0.18534783  0.31358282    -0.75200
O425        O  0.62905756  0.12565221  0.25238086    -0.63800
O426        O  0.59874177  0.15263006  0.37231355    -0.72200
O427        O  0.62468239  0.12970811  0.41493467    -0.71800
O428        O  0.65211817  0.09986760  0.29505291    -0.63000
O429        O  0.68449111  0.16049928  0.35412138    -0.75500
O430        O  0.59352922  0.06985813  0.35508151    -0.74300
Cu431      Cu  0.61345760  0.14046850  0.31100451     1.04600
Cu432      Cu  0.63974037  0.11434993  0.35634179     1.04300
C433        C  0.56703534  0.06768493  0.33346928     0.92000
C434        C  0.68639430  0.18731545  0.33388911     0.91100
C435        C  0.64393221  0.10716738  0.25476425     0.83300
C436        C  0.60607670  0.14445815  0.41258947     0.89500
O437        O  0.52560388  0.34355205  0.64724731    -0.74200
O438        O  0.52521972  0.43414345  0.64590915    -0.75200
O439        O  0.55348872  0.40396800  0.70653829    -0.63800
O440        O  0.49686790  0.37433932  0.58601737    -0.72200
O441        O  0.94780127  0.35117391  0.62809984    -0.71800
O442        O  0.00438253  0.37832656  0.74852049    -0.63000
O443        O  0.97615597  0.40979116  0.68817888    -0.75500
O444        O  0.97568014  0.31869621  0.68740075    -0.74300
Cu445      Cu  0.52698118  0.38966187  0.64490681     1.04600
Cu446      Cu  0.97432982  0.36348595  0.68959052     1.04300
C447        C  0.50062083  0.31673532  0.66730430     0.92000
C448        C  0.50067720  0.43624567  0.66690962     0.91100
C449        C  0.53775526  0.39658505  0.74661868     0.83300
C450        C  0.96349923  0.35937987  0.58801520     0.89500
O451        O  0.49795145  0.12531736  0.74808119    -0.74200
O452        O  0.55276417  0.15136172  0.62616877    -0.75200
O453        O  0.52593199  0.18439453  0.68596610    -0.63800
O454        O  0.52516795  0.09319956  0.68736065    -0.72200
O455        O  0.97606901  0.06872288  0.64514582    -0.71800
O456        O  0.97507720  0.15904523  0.64772819    -0.63000
O457        O  0.00324600  0.12827390  0.58503344    -0.75500
O458        O  0.94839547  0.09895060  0.70700683    -0.74300
Cu459      Cu  0.52715351  0.13957695  0.68837300     1.04600
Cu460      Cu  0.97398678  0.11306355  0.64474694     1.04300
C461        C  0.96456916  0.10683346  0.74683311     0.92000
C462        C  0.53664311  0.14320250  0.58631055     0.91100
C463        C  0.50049277  0.18603616  0.66691871     0.83300
C464        C  0.50063942  0.06661871  0.66616905     0.89500
O465        O  0.85061688  0.44818319  0.03849976    -0.74200
O466        O  0.87786117  0.50535590  0.91882235    -0.75200
O467        O  0.90931802  0.47704217  0.97878263    -0.63800
O468        O  0.81800055  0.47612839  0.97952797    -0.72200
O469        O  0.84295702  0.02638160  0.01910829    -0.71800
O470        O  0.93318478  0.02531417  0.02272126    -0.63000
O471        O  0.90400295  0.05424000  0.96131386    -0.75500
O472        O  0.87278935  0.99697401  0.08117740    -0.74300
Cu473      Cu  0.86293835  0.47500991  0.97734174     1.04600
Cu474      Cu  0.88888289  0.02740885  0.02262650     1.04300
C475        C  0.85830446  0.46366666  0.07878672     0.92000
C476        C  0.89645567  0.03868404  0.92105292     0.91100
C477        C  0.93554580  0.00113683  0.00105393     0.83300
C478        C  0.81613979  0.00127085  0.99915060     0.89500
O479        O  0.65870530  0.47622153  0.02023307    -0.74200
O480        O  0.56790916  0.47628663  0.02218629    -0.75200
O481        O  0.59846509  0.44881699  0.96078241    -0.63800
O482        O  0.62750004  0.50414250  0.08248456    -0.72200
O483        O  0.65098551  0.05356225  0.04131607    -0.71800
O484        O  0.62391832  0.99828342  0.91965582    -0.63000
O485        O  0.59237850  0.02579242  0.98095339    -0.75500
O486        O  0.68353148  0.02646249  0.98084995    -0.74300
Cu487      Cu  0.61248012  0.47467030  0.02291887     1.04600
Cu488      Cu  0.63869970  0.02771660  0.97920505     1.04300
C489        C  0.68548573  0.00134854  0.00032894     0.92000
C490        C  0.56583082  0.00102478  0.00173271     0.91100
C491        C  0.60584701  0.46489686  0.92096387     0.83300
C492        C  0.64262349  0.03752519  0.08117092     0.89500
C493        C  0.50068136  0.03263118  0.00527241    -0.14600
C494        C  0.96884311  0.00106327  0.00172955     0.07500
C495        C  0.96908624  0.46944247  0.99868932    -0.14600
C496        C  0.50070196  0.46938434  0.99955601    -0.14600
C497        C  0.53252479  0.00100344  0.00208594     0.07500
C498        C  0.53232312  0.03263235  0.00474806    -0.14600
H499        H  0.50110276  0.05732759  0.00757170     0.11500
H500        H  0.94481123  0.44477410  0.99619505     0.11500
H501        H  0.50033808  0.44471188  0.99732010     0.11500
H502        H  0.55662901  0.05729034  0.00702908     0.11500
C503        C  0.78248380  0.03289735  0.99663892    -0.14600
C504        C  0.78275426  0.00127693  0.99895812     0.07500
C505        C  0.75089714  0.46968278  0.00149886    -0.14600
C506        C  0.71925603  0.46973970  0.00258112    -0.14600
C507        C  0.71892108  0.00133548  0.99977925     0.07500
C508        C  0.75080597  0.03290006  0.99637737    -0.14600
H509        H  0.80676955  0.05756817  0.99441994     0.11500
H510        H  0.75051249  0.44499697  0.00352418     0.11500
H511        H  0.69501642  0.44504632  0.00500533     0.11500
H512        H  0.75125576  0.05761307  0.99426653     0.11500
C513        C  0.91185148  0.06196586  0.79043543    -0.14600
C514        C  0.94469799  0.09265569  0.79149567     0.07500
C515        C  0.95967339  0.10737766  0.83574646    -0.14600
C516        C  0.94278091  0.09092863  0.87807511    -0.14600
C517        C  0.91101300  0.05904899  0.87689299     0.07500
C518        C  0.89536881  0.04511677  0.83269948    -0.14600
H519        H  0.89974213  0.04990988  0.75686347     0.11500
H520        H  0.98492786  0.13102762  0.83761782     0.11500
H521        H  0.95553962  0.10215374  0.91166739     0.11500
H522        H  0.87088002  0.02062536  0.83078087     0.11500
C523        C  0.54424058  0.39537719  0.83501975    -0.14600
C524        C  0.55805078  0.41110419  0.79088559     0.07500
C525        C  0.58976369  0.44301333  0.78979540    -0.14600
C526        C  0.60618840  0.45996826  0.83213619    -0.14600
C527        C  0.59163014  0.44491805  0.87633889     0.07500
C528        C  0.56110705  0.41193387  0.87734213    -0.14600
H529        H  0.01986247  0.37078713  0.83683145     0.11500
H530        H  0.60085960  0.45584483  0.75624600     0.11500
H531        H  0.62969082  0.48532383  0.83031320     0.11500
H532        H  0.54918702  0.39977662  0.91090318     0.11500
C533        C  0.53185400  0.28270920  0.66050067    -0.14600
C534        C  0.50057599  0.28325404  0.66722246     0.07500
C535        C  0.96925190  0.25151255  0.67380841    -0.14600
C536        C  0.96915700  0.21980633  0.67306495    -0.14600
C537        C  0.50050164  0.21938294  0.66703005     0.07500
C538        C  0.53187997  0.25106684  0.66106192    -0.14600
H539        H  0.55637888  0.30679322  0.65543034     0.11500
H540        H  0.94476160  0.25117250  0.67891444     0.11500
H541        H  0.94467926  0.19563090  0.67794843     0.11500
H542        H  0.55632300  0.25127696  0.65608757     0.11500
C543        C  0.96930626  0.46982695  0.66020074    -0.14600
C544        C  0.50066695  0.46950254  0.66656140     0.07500
C545        C  0.53202698  0.00116690  0.67254016    -0.14600
C546        C  0.53197146  0.03277608  0.67295623    -0.14600
C547        C  0.50066321  0.03323032  0.66606270     0.07500
C548        C  0.96936074  0.00149327  0.65926884    -0.14600
H549        H  0.94486605  0.44560950  0.65524170     0.11500
H550        H  0.55646472  0.00137689  0.67768642     0.11500
H551        H  0.55646761  0.05689110  0.67810198     0.11500
H552        H  0.94486867  0.00113329  0.65397394     0.11500
C553        C  0.60707442  0.15286625  0.50079879    -0.14600
C554        C  0.59105481  0.14993656  0.45654740     0.07500
C555        C  0.55845405  0.14836612  0.45511388    -0.14600
C556        C  0.54122130  0.14757100  0.49728774    -0.14600
C557        C  0.55664240  0.14912769  0.54166104     0.07500
C558        C  0.59022273  0.15289602  0.54291806    -0.14600
H559        H  0.63218095  0.15411808  0.50286912     0.11500
H560        H  0.54537066  0.14577208  0.42144843     0.11500
H561        H  0.51539809  0.14467026  0.49520893     0.11500
H562        H  0.60273029  0.15400271  0.57657856     0.11500
C563        C  0.65298836  0.09140493  0.12455453    -0.14600
C564        C  0.64858055  0.05758276  0.12581494     0.07500
C565        C  0.64639329  0.04196631  0.17018069    -0.14600
C566        C  0.64721574  0.05924682  0.21232043    -0.14600
C567        C  0.64944118  0.09211489  0.21087083     0.07500
C568        C  0.65298073  0.10832821  0.16666400    -0.14600
H569        H  0.65458586  0.10406448  0.09089606     0.11500
H570        H  0.64296690  0.01595115  0.17227561     0.11500
H571        H  0.64410905  0.04601137  0.24594431     0.11500
H572        H  0.65472867  0.13364307  0.16461311     0.11500
C573        C  0.93988363  0.35104732  0.45752841    -0.14600
C574        C  0.90997611  0.35465027  0.45848816     0.07500
C575        C  0.89571271  0.35581166  0.50265795    -0.14600
C576        C  0.91195074  0.35494414  0.54499219    -0.14600
C577        C  0.94315969  0.35371251  0.54388618     0.07500
C578        C  0.95656989  0.35101232  0.49982444    -0.14600
H579        H  0.95153128  0.35018782  0.42399240     0.11500
H580        H  0.87266130  0.35850150  0.50445627     0.11500
H581        H  0.90119059  0.35729184  0.57853419     0.11500
H582        H  0.98053934  0.34996692  0.49804857     0.11500
C583        C  0.50198851  0.47101595  0.32875134    -0.14600
C584        C  0.97011753  0.47063892  0.33354475     0.07500
C585        C  0.97040013  0.00244814  0.33833564    -0.14600
C586        C  0.50198521  0.03411477  0.33759628    -0.14600
C587        C  0.53379424  0.03439278  0.33344766     0.07500
C588        C  0.53362261  0.00264319  0.32937874    -0.14600
H589        H  0.50246088  0.44682745  0.32518805     0.11500
H590        H  0.94616878  0.00284869  0.34195520     0.11500
H591        H  0.50163180  0.05837694  0.34103785     0.11500
H592        H  0.55793467  0.00237026  0.32593186     0.11500
C593        C  0.78336793  0.25286003  0.34049402    -0.14600
C594        C  0.78379633  0.28454492  0.33366710     0.07500
C595        C  0.75209882  0.28418170  0.32703806    -0.14600
C596        C  0.72043827  0.25252855  0.32650435    -0.14600
C597        C  0.71988459  0.22077601  0.33391706     0.07500
C598        C  0.75164520  0.22127934  0.34126834    -0.14600
H599        H  0.80754276  0.25260925  0.34595765     0.11500
H600        H  0.75189431  0.30836252  0.32150497     0.11500
H601        H  0.69635886  0.25292458  0.32087392     0.11500
H602        H  0.75200142  0.19719811  0.34697577     0.11500
C603        C  0.85621292  0.41324317  0.12163672    -0.14600
C604        C  0.85275837  0.44319486  0.12268776     0.07500
C605        C  0.84807175  0.45542153  0.16660763    -0.14600
C606        C  0.84826389  0.43882707  0.20891121    -0.14600
C607        C  0.85400909  0.41022869  0.20811944     0.07500
C608        C  0.85720965  0.39712995  0.16397436    -0.14600
H609        H  0.86019773  0.40347876  0.08822053     0.11500
H610        H  0.84532023  0.47843362  0.16830065     0.11500
H611        H  0.84576744  0.44956385  0.24237941     0.11500
H612        H  0.86162359  0.37513420  0.16221574     0.11500
O613        O  0.85189103  0.90461641  0.29273543    -0.74200
O614        O  0.87788451  0.87593089  0.41490227    -0.75200
O615        O  0.91005362  0.93525934  0.35429669    -0.63800
O616        O  0.81881897  0.84491835  0.35258020    -0.72200
O617        O  0.84416362  0.81940141  0.31441545    -0.71800
O618        O  0.93472853  0.91054756  0.31275947    -0.63000
O619        O  0.90405491  0.85246118  0.37405049    -0.75500
O620        O  0.87533714  0.87835771  0.25207046    -0.74300
Cu621      Cu  0.86366523  0.89089353  0.35510744     1.04600
Cu622      Cu  0.89027175  0.86419144  0.31184523     1.04300
C623        C  0.86018274  0.89661830  0.25302946     0.92000
C624        C  0.89613832  0.86076299  0.41378628     0.91100
C625        C  0.93674112  0.93724506  0.33354443     0.83300
C626        C  0.81716160  0.81785183  0.33353716     0.89500
O627        O  0.56907922  0.59411940  0.31191873    -0.74200
O628        O  0.65952708  0.68535219  0.31357618    -0.75200
O629        O  0.62905885  0.62565639  0.25237504    -0.63800
O630        O  0.59873274  0.65263267  0.37230188    -0.72200
O631        O  0.62467333  0.62971257  0.41492709    -0.71800
O632        O  0.65211917  0.59987475  0.29505419    -0.63000
O633        O  0.68448459  0.66050537  0.35412127    -0.75500
O634        O  0.59352570  0.56986310  0.35507407    -0.74300
Cu635      Cu  0.61345346  0.64047205  0.31099493     1.04600
Cu636      Cu  0.63973559  0.61435561  0.35633845     1.04300
C637        C  0.56703251  0.56768878  0.33345841     0.92000
C638        C  0.68638802  0.68732065  0.33388604     0.91100
C639        C  0.64393575  0.60717372  0.25476334     0.83300
C640        C  0.60606701  0.64446169  0.41257909     0.89500
O641        O  0.52558812  0.84354640  0.64724278    -0.74200
O642        O  0.52520050  0.93413558  0.64591535    -0.75200
O643        O  0.55347528  0.90396122  0.70653353    -0.63800
O644        O  0.49684606  0.87433237  0.58602235    -0.72200
O645        O  0.94778159  0.85116555  0.62810974    -0.71800
O646        O  0.00437240  0.87831939  0.74852285    -0.63000
O647        O  0.97613912  0.90978248  0.68819028    -0.75500
O648        O  0.97566723  0.81868920  0.68740292    -0.74300
Cu649      Cu  0.52696333  0.88965510  0.64490698     1.04600
Cu650      Cu  0.97431487  0.86347798  0.68959727     1.04300
C651        C  0.50060734  0.81672940  0.66730241     0.92000
C652        C  0.50065919  0.93623730  0.66692018     0.91100
C653        C  0.53774490  0.89657835  0.74661598     0.83300
C654        C  0.96347756  0.85937193  0.58802369     0.89500
O655        O  0.49796003  0.62531827  0.74808268    -0.74200
O656        O  0.55276359  0.65136732  0.62616185    -0.75200
O657        O  0.52593092  0.68439590  0.68596650    -0.63800
O658        O  0.52517759  0.59320541  0.68735380    -0.72200
O659        O  0.97607390  0.56872419  0.64514894    -0.71800
O660        O  0.97507429  0.65904258  0.64773322    -0.63000
O661        O  0.00324191  0.62827291  0.58503381    -0.75500
O662        O  0.94840111  0.59894967  0.70701487    -0.74300
Cu663      Cu  0.52715773  0.63958059  0.68836998     1.04600
Cu664      Cu  0.97398756  0.61306262  0.64475151     1.04300
C665        C  0.96457770  0.60683250  0.74683894     0.92000
C666        C  0.53663940  0.64320504  0.58630593     0.91100
C667        C  0.50048964  0.68603501  0.66692128     0.83300
C668        C  0.50064826  0.56662305  0.66616566     0.89500
O669        O  0.85061785  0.94818517  0.03848889    -0.74200
O670        O  0.87784752  0.00536123  0.91881380    -0.75200
O671        O  0.90931177  0.97704778  0.97875954    -0.63800
O672        O  0.81799270  0.97612917  0.97953088    -0.72200
O673        O  0.84296265  0.52638019  0.01910654    -0.71800
O674        O  0.93318831  0.52531024  0.02274075    -0.63000
O675        O  0.90401283  0.55423549  0.96132115    -0.75500
O676        O  0.87278823  0.49697284  0.08118640    -0.74300
Cu677      Cu  0.86293151  0.97501343  0.97733183     1.04600
Cu678      Cu  0.88888727  0.52740606  0.02263473     1.04300
C679        C  0.85830759  0.96366801  0.07877633     0.92000
C680        C  0.89646883  0.53867873  0.92106085     0.91100
C681        C  0.93555062  0.50113184  0.00107880     0.83300
C682        C  0.81614671  0.50127035  0.99914534     0.89500
O683        O  0.65869506  0.97621921  0.02023142    -0.74200
O684        O  0.56789854  0.97628508  0.02216283    -0.75200
O685        O  0.59846063  0.94881566  0.96077082    -0.63800
O686        O  0.62748288  0.00413811  0.08247320    -0.72200
O687        O  0.65099742  0.55356523  0.04132457    -0.71800
O688        O  0.62392091  0.49828482  0.91966746    -0.63000
O689        O  0.59238408  0.52579275  0.98097423    -0.75500
O690        O  0.68353897  0.52646535  0.98085257    -0.74300
Cu691      Cu  0.61246930  0.97466792  0.02290677     1.04600
Cu692      Cu  0.63870634  0.52771840  0.97921585     1.04300
C693        C  0.68549439  0.50135110  0.00032839     0.92000
C694        C  0.56583878  0.50102544  0.00175826     0.91100
C695        C  0.60584435  0.96489536  0.92095234     0.83300
C696        C  0.64263937  0.53752959  0.08118032     0.89500
C697        C  0.50068592  0.53262750  0.00530765    -0.14600
C698        C  0.96884843  0.50105904  0.00176101     0.07500
C699        C  0.96907929  0.96944586  0.99865836    -0.14600
C700        C  0.50069410  0.96938613  0.99952482    -0.14600
C701        C  0.53253189  0.50100243  0.00211785     0.07500
C702        C  0.53232854  0.53263032  0.00478370    -0.14600
H703        H  0.50110623  0.55732337  0.00760783     0.11500
H704        H  0.94480351  0.94477789  0.99616652     0.11500
H705        H  0.50032891  0.94471290  0.99729113     0.11500
H706        H  0.55663379  0.55728880  0.00706602     0.11500
C707        C  0.78249227  0.53289950  0.99665864    -0.14600
C708        C  0.78276139  0.50127735  0.99894822     0.07500
C709        C  0.75089129  0.96968322  0.00153815    -0.14600
C710        C  0.71924982  0.96973957  0.00261849    -0.14600
C711        C  0.71892912  0.50133754  0.99977293     0.07500
C712        C  0.75081495  0.53290330  0.99639882    -0.14600
H713        H  0.80677874  0.55757121  0.99446317     0.11500
H714        H  0.75050826  0.94499894  0.00358655     0.11500
H715        H  0.69501138  0.94504694  0.00506474     0.11500
H716        H  0.75126562  0.55761762  0.99431269     0.11500
C717        C  0.91186215  0.56196379  0.79044400    -0.14600
C718        C  0.94470983  0.59265238  0.79150347     0.07500
C719        C  0.95968885  0.60737087  0.83575417    -0.14600
C720        C  0.94279791  0.59092056  0.87808306    -0.14600
C721        C  0.91102787  0.55904307  0.87690112     0.07500
C722        C  0.89538107  0.54511342  0.83270815    -0.14600
H723        H  0.89975016  0.54991023  0.75687241     0.11500
H724        H  0.98494447  0.63101947  0.83762507     0.11500
H725        H  0.95555869  0.60214329  0.91167511     0.11500
H726        H  0.87089059  0.52062347  0.83078988     0.11500
C727        C  0.54424083  0.89536952  0.83501409    -0.14600
C728        C  0.55804413  0.91109891  0.79087918     0.07500
C729        C  0.58975305  0.94301188  0.78978518    -0.14600
C730        C  0.60617999  0.95996819  0.83212404    -0.14600
C731        C  0.59162800  0.94491574  0.87632805     0.07500
C732        C  0.56110960  0.91192769  0.87733436    -0.14600
H733        H  0.01986589  0.87077632  0.83682824     0.11500
H734        H  0.60084334  0.95584511  0.75623479     0.11500
H735        H  0.62967868  0.98532681  0.83029865     0.11500
H736        H  0.54919449  0.89976843  0.91089629     0.11500
C737        C  0.53184377  0.78270657  0.66049474    -0.14600
C738        C  0.50056497  0.78324929  0.66722008     0.07500
C739        C  0.96924263  0.75150685  0.67381092    -0.14600
C740        C  0.96915031  0.71980182  0.67306925    -0.14600
C741        C  0.50049593  0.71938066  0.66703148     0.07500
C742        C  0.53187251  0.75106552  0.66105796    -0.14600
H743        H  0.55636744  0.80679142  0.65542051     0.11500
H744        H  0.94475177  0.75116509  0.67891976     0.11500
H745        H  0.94467404  0.69562577  0.67795642     0.11500
H746        H  0.55631597  0.75127735  0.65608099     0.11500
C747        C  0.96929189  0.96982134  0.66019882    -0.14600
C748        C  0.50064987  0.96949436  0.66657541     0.07500
C749        C  0.53204466  0.50117698  0.67251141    -0.14600
C750        C  0.53198677  0.53278514  0.67293075    -0.14600
C751        C  0.50067540  0.53323630  0.66605513     0.07500
C752        C  0.96937248  0.50149754  0.65927415    -0.14600
H753        H  0.94485225  0.94560508  0.65522831     0.11500
H754        H  0.55648444  0.50138931  0.67764506     0.11500
H755        H  0.55648333  0.55690171  0.67806560     0.11500
H756        H  0.94487799  0.50113518  0.65399287     0.11500
C757        C  0.60707059  0.65288039  0.50078567    -0.14600
C758        C  0.59104496  0.64994056  0.45653627     0.07500
C759        C  0.55843936  0.64835953  0.45510577    -0.14600
C760        C  0.54120814  0.64756392  0.49728153    -0.14600
C761        C  0.55663567  0.64913080  0.54165332     0.07500
C762        C  0.59022038  0.65290976  0.54290647    -0.14600
H763        H  0.63218085  0.65414039  0.50285338     0.11500
H764        H  0.54535144  0.64575726  0.42144176     0.11500
H765        H  0.51538137  0.64465464  0.49520559     0.11500
H766        H  0.60273313  0.65402455  0.57656546     0.11500
C767        C  0.65300356  0.59141066  0.12455823    -0.14600
C768        C  0.64859763  0.55758922  0.12582253     0.07500
C769        C  0.64641053  0.54197498  0.17018985    -0.14600
C770        C  0.64722920  0.55925610  0.21232725    -0.14600
C771        C  0.64945057  0.59212234  0.21087329     0.07500
C772        C  0.65299203  0.60833437  0.16666517    -0.14600
H773        H  0.65460141  0.60406874  0.09089848     0.11500
H774        H  0.64298592  0.51596063  0.17228769     0.11500
H775        H  0.64412191  0.54602202  0.24595237     0.11500
H776        H  0.65473762  0.63364810  0.16461104     0.11500
C777        C  0.93985681  0.85102693  0.45753927    -0.14600
C778        C  0.90995741  0.85464375  0.45849541     0.07500
C779        C  0.89569834  0.85581638  0.50266391    -0.14600
C780        C  0.91193431  0.85494778  0.54499999    -0.14600
C781        C  0.94313660  0.85370362  0.54389622     0.07500
C782        C  0.95654109  0.85099089  0.49983654    -0.14600
H783        H  0.95150066  0.85015775  0.42400470     0.11500
H784        H  0.87265312  0.85851658  0.50445969     0.11500
H785        H  0.90117901  0.85730507  0.57854042     0.11500
H786        H  0.98050499  0.84993519  0.49806299     0.11500
C787        C  0.50198816  0.97101297  0.32874410    -0.14600
C788        C  0.97011805  0.97063618  0.33355148     0.07500
C789        C  0.97039750  0.50245074  0.33831213    -0.14600
C790        C  0.50198190  0.53411786  0.33757009    -0.14600
C791        C  0.53379201  0.53439629  0.33343614     0.07500
C792        C  0.53362213  0.50264677  0.32938368    -0.14600
H793        H  0.50245938  0.94682460  0.32516739     0.11500
H794        H  0.94616519  0.50285061  0.34192055     0.11500
H795        H  0.50162709  0.55837990  0.34099889     0.11500
H796        H  0.55793502  0.50237409  0.32594851     0.11500
C797        C  0.78336104  0.75286325  0.34049324    -0.14600
C798        C  0.78379046  0.78454812  0.33366109     0.07500
C799        C  0.75209371  0.78418579  0.32702865    -0.14600
C800        C  0.72043270  0.75253323  0.32649621    -0.14600
C801        C  0.71987813  0.72078075  0.33391379     0.07500
C802        C  0.75163796  0.72128334  0.34126877    -0.14600
H803        H  0.80753532  0.75261198  0.34596003     0.11500
H804        H  0.75189021  0.80836686  0.32149197     0.11500
H805        H  0.69635377  0.75292962  0.32086277     0.11500
H806        H  0.75199337  0.69720201  0.34697991     0.11500
C807        C  0.85623329  0.91325210  0.12162597    -0.14600
C808        C  0.85276528  0.94319600  0.12267629     0.07500
C809        C  0.84806686  0.95541515  0.16659497    -0.14600
C810        C  0.84825923  0.93882074  0.20889853    -0.14600
C811        C  0.85401659  0.91023000  0.20810854     0.07500
C812        C  0.85723023  0.89713904  0.16396400    -0.14600
H813        H  0.86022757  0.90349395  0.08821065     0.11500
H814        H  0.84530482  0.97842119  0.16828719     0.11500
H815        H  0.84575226  0.94955151  0.24236591     0.11500
H816        H  0.86165392  0.87514947  0.16220627     0.11500
loop_ 
_geom_bond_atom_site_label_1 
_geom_bond_atom_site_label_2 
_geom_bond_distance 
_geom_bond_site_symmetry_2 
_ccdc_geom_bond_type 
O1           Cu9   2.005       .  S
O1           C11   1.278       .  A
O2           Cu9   2.016       .  S
O2           C12   1.280       .  A
O3           Cu9   2.006       .  S
O3           C13   1.278       .  A
O4           Cu9   2.007       .  S
O4           C14   1.277       .  A
O5          Cu10   2.009       .  S
O5           C14   1.278       .  A
O6          Cu10   2.007       .  S
O6           C13   1.278       .  A
O7          Cu10   2.002       .  S
O7           C12   1.277       .  A
O8          Cu10   2.014       .  S
O8           C11   1.279       .  A
Cu9         Cu10   2.373       .  S
C11         C199   1.480       .  S
C12         C166   1.479       .  S
C13         C176   1.475       .  S
C14         C186   1.473       .  S
O15         Cu23   2.005       .  S
O15          C25   1.277       .  A
O16         Cu23   2.010       .  S
O16          C26   1.278       .  A
O17         Cu23   2.016       .  S
O17          C27   1.279       .  A
O18         Cu23   2.007       .  S
O18          C28   1.277       .  A
O19         Cu24   2.015       .  S
O19          C28   1.279       .  A
O20         Cu24   2.005       .  S
O20          C27   1.277       .  A
O21         Cu24   2.009       .  S
O21          C26   1.278       .  A
O22         Cu24   2.004       .  S
O22          C25   1.277       .  A
Cu23        Cu24   2.373       .  S
C25         C179   1.469       .  S
C26         C189   1.479       .  S
C27         C159   1.477       .  S
C28         C146   1.478       .  S
O29         Cu37   2.007       .  S
O29          C39   1.278       .  A
O30         Cu37   2.004       .  S
O30          C40   1.277       .  A
O31         Cu37   2.006       .  S
O31          C41   1.278       .  A
O32         Cu37   2.015   1_655  S
O32         C450   1.279       .  A
O33         Cu38   2.003       .  S
O33          C42   1.277       .  A
O34         Cu38   2.014       .  S
O34         C449   1.279       .  A
O35         Cu38   2.006       .  S
O35         C448   1.277       .  A
O36         Cu38   2.009       .  S
O36         C447   1.278       .  A
Cu37       Cu446   2.374   1_455  S
Cu38       Cu445   2.374       .  S
C39         O444   1.278   1_455  A
C39         C126   1.477       .  S
C40         O443   1.277   1_455  A
C40         C136   1.469       .  S
C41         O442   1.279       .  A
C41         C116   1.478       .  S
C42         O440   1.279       .  A
C42         C169   1.476       .  S
O43         Cu51   2.016   1_655  S
O43         C461   1.279       .  A
O44         Cu51   2.005       .  S
O44          C54   1.278       .  A
O45         Cu51   2.008       .  S
O45          C55   1.278       .  A
O46         Cu51   2.006       .  S
O46          C56   1.278       .  A
O47         Cu52   2.005       .  S
O47         C464   1.278       .  A
O48         Cu52   2.008       .  S
O48         C463   1.278       .  A
O49         Cu52   2.018       .  S
O49         C462   1.280       .  A
O50         Cu52   2.006       .  S
O50          C53   1.278       .  A
Cu51       Cu460   2.372   1_455  S
Cu52       Cu459   2.372       .  S
C53         O451   1.279       .  A
C53         C106   1.480       .  S
C54         O457   1.280       .  A
C54         C149   1.481       .  S
C55         O456   1.278   1_455  A
C55         C129   1.472       .  S
C56         O455   1.278   1_455  A
C56         C139   1.475       .  S
O57         Cu65   2.003   1_554  S
O57          C67   1.277       .  A
O58         Cu65   2.014       .  S
O58         C272   1.279       .  A
O59         Cu65   2.004       .  S
O59         C273   1.278   1_556  A
O60         Cu65   2.009       .  S
O60         C274   1.278       .  A
O61         Cu66   2.007       .  S
O61          C70   1.277   1_554  A
O62         Cu66   2.003       .  S
O62          C69   1.277       .  A
O63         Cu66   2.008   1_556  S
O63          C68   1.278       .  A
O64         Cu66   2.017   1_565  S
O64         C271   1.279       .  A
Cu65       Cu270   2.373   1_556  S
Cu66       Cu269   2.373   1_544  S
C67         O268   1.279       .  A
C67         C196   1.476       .  S
C68         O262   1.279       .  A
C68         C109   1.479       .  S
C69         O263   1.278   1_544  A
C69          C86   1.471       .  S
C70         O264   1.278   1_545  A
C70          C96   1.473       .  S
O71         Cu79   2.008       .  S
O71         C285   1.278       .  A
O72         Cu79   2.003       .  S
O72         C286   1.277       .  A
O73         Cu79   2.006   1_556  S
O73          C83   1.278       .  A
O74         Cu79   2.017       .  S
O74         C288   1.280       .  A
O75         Cu80   2.005   1_554  S
O75          C84   1.278       .  A
O76         Cu80   2.016   1_565  S
O76         C287   1.279       .  A
O77         Cu80   2.004       .  S
O77          C82   1.277   1_556  A
O78         Cu80   2.007       .  S
O78          C81   1.278   1_556  A
Cu79       Cu284   2.373   1_554  S
Cu80       Cu283   2.373   1_546  S
C81         O275   1.278   1_545  A
C81          C99   1.476   1_554  S
C82         O276   1.277   1_545  A
C82          C89   1.469       .  S
C83         O280   1.279       .  A
C83         C119   1.479       .  S
C84         O278   1.280       .  A
C84         C156   1.481       .  S
C85          C90   1.396       .  A
C85         C494   1.404   1_455  A
C85          H91   1.083       .  S
C86         C493   1.404       .  A
C86         C291   1.404   1_544  A
C87         C290   1.404   1_556  A
C87         C496   1.397       .  A
C87          H92   1.083       .  S
C88         C495   1.397   1_455  A
C88         C293   1.403   1_556  A
C88          H93   1.083       .  S
C89          C90   1.403       .  A
C89         C292   1.403   1_544  A
C90          H94   1.083       .  S
C95          C96   1.404       .  A
C95         C100   1.398       .  A
C95         H101   1.083       .  S
C96         C301   1.403   1_546  A
C97          C98   1.398       .  A
C97         C300   1.403   1_554  A
C97         H102   1.083       .  S
C98         C303   1.405   1_554  A
C98         H103   1.083       .  S
C99         C100   1.405       .  A
C99         C302   1.405   1_546  A
C100        H104   1.083       .  S
C105        C106   1.406       .  A
C105        C110   1.398       .  A
C105        H111   1.083       .  S
C106        C107   1.405       .  A
C107        C108   1.400       .  A
C107        H112   1.083       .  S
C108        C109   1.406       .  A
C108        H113   1.083       .  S
C109        C110   1.404       .  A
C110        H114   1.083       .  S
C115        C116   1.404       .  A
C115        C120   1.399       .  A
C115        H529   1.083       .  S
C116        C117   1.406       .  A
C117        C118   1.399       .  A
C117        H122   1.083       .  S
C118        C119   1.404       .  A
C118        H123   1.083       .  S
C119        C120   1.406       .  A
C120        H124   1.083       .  S
H121        C523   1.083       .  S
C125        C126   1.405       .  A
C125        C130   1.398       .  A
C125        H131   1.083       .  S
C126        C535   1.405   1_455  A
C127        C128   1.398       .  A
C127        C534   1.405       .  A
C127        H132   1.083       .  S
C128        C537   1.403       .  A
C128        H133   1.083       .  S
C129        C130   1.403       .  A
C129        C536   1.403   1_455  A
C130        H134   1.083       .  S
C135        C544   1.402       .  A
C135        C344   1.397       .  A
C135        H141   1.083       .  S
C136        C543   1.402   1_455  A
C136        C341   1.402       .  A
C137        C138   1.397       .  A
C137        C340   1.402   1_545  A
C137        H142   1.083       .  S
C138        C139   1.405       .  A
C138        H143   1.083       .  S
C139        C548   1.405   1_455  A
C140        C339   1.397   1_545  A
C140        C547   1.405       .  A
C140        H144   1.083       .  S
C145        C146   1.403       .  A
C145        C150   1.399       .  A
C145        H151   1.083       .  S
C146        C147   1.406       .  A
C147        C148   1.399       .  A
C147        H152   1.084       .  S
C148        C149   1.405       .  A
C148        H153   1.083       .  S
C149        C150   1.407       .  A
C150        H154   1.083       .  S
C155        C156   1.407       .  A
C155        C160   1.399       .  A
C155        H161   1.083       .  S
C156        C157   1.405       .  A
C157        C158   1.399       .  A
C157        H162   1.083       .  S
C158        C159   1.405       .  A
C158        H163   1.083       .  S
C159        C160   1.403       .  A
C160        H164   1.083       .  S
C165        C166   1.406       .  A
C165        C170   1.398       .  A
C165        H171   1.083       .  S
C166        C167   1.404       .  A
C167        C168   1.398       .  A
C167        H172   1.083       .  S
C168        C169   1.405       .  A
C168        H173   1.084       .  S
C169        C170   1.403       .  A
C170        H174   1.083       .  S
C175        C584   1.405   1_455  A
C175        C384   1.397       .  A
C175        H181   1.083       .  S
C176        C583   1.405       .  A
C176        C381   1.405       .  A
C177        C380   1.405   1_545  A
C177        C586   1.397       .  A
C177        H182   1.083       .  S
C178        C179   1.403       .  A
C178        C585   1.397   1_455  A
C178        H183   1.083       .  S
C179        C180   1.403       .  A
C180        C379   1.397   1_545  A
C180        H184   1.083       .  S
C185        C186   1.403       .  A
C185        C190   1.398       .  A
C185        H191   1.083       .  S
C186        C187   1.403       .  A
C187        C188   1.398       .  A
C187        H192   1.084       .  S
C188        C189   1.406       .  A
C188        H193   1.083       .  S
C189        C190   1.406       .  A
C190        H194   1.083       .  S
C195        C196   1.405       .  A
C195        C200   1.398       .  A
C195        H201   1.083       .  S
C196        C197   1.403       .  A
C197        C198   1.399       .  A
C197        H202   1.083       .  S
C198        C199   1.407       .  A
C198        H203   1.083       .  S
C199        C200   1.405       .  A
C200        H204   1.083       .  S
O205       Cu213   2.005       .  S
O205        C215   1.278       .  A
O206       Cu213   2.016       .  S
O206        C216   1.280       .  A
O207       Cu213   2.006       .  S
O207        C217   1.278       .  A
O208       Cu213   2.007       .  S
O208        C218   1.277       .  A
O209       Cu214   2.009       .  S
O209        C218   1.278       .  A
O210       Cu214   2.007       .  S
O210        C217   1.278       .  A
O211       Cu214   2.002       .  S
O211        C216   1.277       .  A
O212       Cu214   2.014       .  S
O212        C215   1.279       .  A
Cu213      Cu214   2.373       .  S
C215        C403   1.480       .  S
C216        C370   1.479       .  S
C217        C380   1.475       .  S
C218        C390   1.473       .  S
O219       Cu227   2.005       .  S
O219        C229   1.277       .  A
O220       Cu227   2.010       .  S
O220        C230   1.278       .  A
O221       Cu227   2.016       .  S
O221        C231   1.279       .  A
O222       Cu227   2.007       .  S
O222        C232   1.277       .  A
O223       Cu228   2.015       .  S
O223        C232   1.279       .  A
O224       Cu228   2.005       .  S
O224        C231   1.277       .  A
O225       Cu228   2.009       .  S
O225        C230   1.278       .  A
O226       Cu228   2.004       .  S
O226        C229   1.277       .  A
Cu227      Cu228   2.373       .  S
C229        C383   1.469       .  S
C230        C393   1.479       .  S
C231        C363   1.477       .  S
C232        C350   1.478       .  S
O233       Cu241   2.007       .  S
O233        C243   1.278       .  A
O234       Cu241   2.004       .  S
O234        C244   1.277       .  A
O235       Cu241   2.006       .  S
O235        C245   1.278       .  A
O236       Cu241   2.014   1_655  S
O236        C654   1.279       .  A
O237       Cu242   2.003       .  S
O237        C246   1.277       .  A
O238       Cu242   2.014       .  S
O238        C653   1.279       .  A
O239       Cu242   2.006       .  S
O239        C652   1.277       .  A
O240       Cu242   2.009       .  S
O240        C651   1.278       .  A
Cu241      Cu650   2.374   1_455  S
Cu242      Cu649   2.374       .  S
C243        O648   1.278   1_455  A
C243        C330   1.477       .  S
C244        O647   1.277   1_455  A
C244        C340   1.469       .  S
C245        O646   1.279       .  A
C245        C320   1.478       .  S
C246        O644   1.279       .  A
C246        C373   1.476       .  S
O247       Cu255   2.016   1_655  S
O247        C665   1.279       .  A
O248       Cu255   2.005       .  S
O248        C258   1.278       .  A
O249       Cu255   2.008       .  S
O249        C259   1.278       .  A
O250       Cu255   2.006       .  S
O250        C260   1.278       .  A
O251       Cu256   2.005       .  S
O251        C668   1.278       .  A
O252       Cu256   2.008       .  S
O252        C667   1.278       .  A
O253       Cu256   2.018       .  S
O253        C666   1.280       .  A
O254       Cu256   2.006       .  S
O254        C257   1.278       .  A
Cu255      Cu664   2.372   1_455  S
Cu256      Cu663   2.372       .  S
C257        O655   1.279       .  A
C257        C310   1.480       .  S
C258        O661   1.280       .  A
C258        C353   1.481       .  S
C259        O660   1.278   1_455  A
C259        C333   1.472       .  S
C260        O659   1.278   1_455  A
C260        C343   1.475       .  S
O261       Cu269   2.003   1_554  S
O261        C271   1.277       .  A
O262       Cu269   2.014   1_545  S
O263       Cu269   2.004       .  S
O264       Cu269   2.009       .  S
O265       Cu270   2.007       .  S
O265        C274   1.277   1_554  A
O266       Cu270   2.003       .  S
O266        C273   1.277       .  A
O267       Cu270   2.008   1_556  S
O267        C272   1.278       .  A
O268       Cu270   2.017       .  S
C271        C400   1.476       .  S
C272        C313   1.479       .  S
C273        C290   1.471       .  S
C274        C300   1.473       .  S
O275       Cu283   2.008       .  S
O276       Cu283   2.004       .  S
O277       Cu283   2.006   1_556  S
O277        C287   1.278       .  A
O278       Cu283   2.017   1_545  S
O279       Cu284   2.005   1_554  S
O279        C288   1.278       .  A
O280       Cu284   2.016       .  S
O281       Cu284   2.004       .  S
O281        C286   1.277   1_556  A
O282       Cu284   2.007       .  S
O282        C285   1.278   1_556  A
C285        C303   1.476   1_554  S
C286        C293   1.469       .  S
C287        C323   1.479       .  S
C288        C360   1.481       .  S
C289        C698   1.404   1_455  A
C289        C294   1.396       .  A
C289        H295   1.083       .  S
C290        C697   1.404       .  A
C291        C700   1.397       .  A
C291        H296   1.083       .  S
C292        C699   1.397   1_455  A
C292        H297   1.083       .  S
C293        C294   1.403       .  A
C294        H298   1.083       .  S
C299        C300   1.404       .  A
C299        C304   1.398       .  A
C299        H305   1.083       .  S
C301        C302   1.398       .  A
C301        H306   1.083       .  S
C302        H307   1.083       .  S
C303        C304   1.405       .  A
C304        H308   1.083       .  S
C309        C310   1.406       .  A
C309        C314   1.398       .  A
C309        H315   1.083       .  S
C310        C311   1.405       .  A
C311        C312   1.400       .  A
C311        H316   1.083       .  S
C312        C313   1.406       .  A
C312        H317   1.083       .  S
C313        C314   1.404       .  A
C314        H318   1.083       .  S
C319        C320   1.404       .  A
C319        C324   1.399       .  A
C319        H733   1.083       .  S
C320        C321   1.406       .  A
C321        C322   1.399       .  A
C321        H326   1.083       .  S
C322        C323   1.404       .  A
C322        H327   1.083       .  S
C323        C324   1.406       .  A
C324        H328   1.083       .  S
H325        C727   1.083       .  S
C329        C330   1.405       .  A
C329        C334   1.398       .  A
C329        H335   1.083       .  S
C330        C739   1.405   1_455  A
C331        C738   1.405       .  A
C331        C332   1.398       .  A
C331        H336   1.083       .  S
C332        C741   1.403       .  A
C332        H337   1.083       .  S
C333        C740   1.403   1_455  A
C333        C334   1.403       .  A
C334        H338   1.083       .  S
C339        C748   1.402       .  A
C339        H345   1.083       .  S
C340        C747   1.402   1_455  A
C341        C342   1.397       .  A
C341        H346   1.083       .  S
C342        C343   1.405       .  A
C342        H347   1.083       .  S
C343        C752   1.405   1_455  A
C344        C751   1.405       .  A
C344        H348   1.083       .  S
C349        C350   1.403       .  A
C349        C354   1.399       .  A
C349        H355   1.083       .  S
C350        C351   1.406       .  A
C351        C352   1.399       .  A
C351        H356   1.084       .  S
C352        C353   1.405       .  A
C352        H357   1.083       .  S
C353        C354   1.407       .  A
C354        H358   1.083       .  S
C359        C360   1.407       .  A
C359        C364   1.399       .  A
C359        H365   1.083       .  S
C360        C361   1.405       .  A
C361        C362   1.399       .  A
C361        H366   1.083       .  S
C362        C363   1.405       .  A
C362        H367   1.083       .  S
C363        C364   1.403       .  A
C364        H368   1.083       .  S
C369        C370   1.406       .  A
C369        C374   1.398       .  A
C369        H375   1.083       .  S
C370        C371   1.404       .  A
C371        C372   1.398       .  A
C371        H376   1.083       .  S
C372        C373   1.405       .  A
C372        H377   1.084       .  S
C373        C374   1.403       .  A
C374        H378   1.083       .  S
C379        C788   1.405   1_455  A
C379        H385   1.083       .  S
C380        C787   1.405       .  A
C381        C790   1.397       .  A
C381        H386   1.083       .  S
C382        C789   1.397   1_455  A
C382        C383   1.403       .  A
C382        H387   1.083       .  S
C383        C384   1.403       .  A
C384        H388   1.083       .  S
C389        C390   1.403       .  A
C389        C394   1.398       .  A
C389        H395   1.083       .  S
C390        C391   1.403       .  A
C391        C392   1.398       .  A
C391        H396   1.084       .  S
C392        C393   1.406       .  A
C392        H397   1.083       .  S
C393        C394   1.406       .  A
C394        H398   1.083       .  S
C399        C400   1.405       .  A
C399        C404   1.398       .  A
C399        H405   1.083       .  S
C400        C401   1.403       .  A
C401        C402   1.399       .  A
C401        H406   1.083       .  S
C402        C403   1.407       .  A
C402        H407   1.083       .  S
C403        C404   1.405       .  A
C404        H408   1.083       .  S
O409       Cu417   2.005       .  S
O409        C419   1.278       .  A
O410       Cu417   2.016       .  S
O410        C420   1.280       .  A
O411       Cu417   2.006       .  S
O411        C421   1.278       .  A
O412       Cu417   2.007       .  S
O412        C422   1.277       .  A
O413       Cu418   2.009       .  S
O413        C422   1.278       .  A
O414       Cu418   2.007       .  S
O414        C421   1.278       .  A
O415       Cu418   2.002       .  S
O415        C420   1.277       .  A
O416       Cu418   2.014       .  S
O416        C419   1.279       .  A
Cu417      Cu418   2.373       .  S
C419        C607   1.480       .  S
C420        C574   1.479       .  S
C421        C584   1.475       .  S
C422        C594   1.473       .  S
O423       Cu431   2.005       .  S
O423        C433   1.277       .  A
O424       Cu431   2.010       .  S
O424        C434   1.278       .  A
O425       Cu431   2.016       .  S
O425        C435   1.279       .  A
O426       Cu431   2.007       .  S
O426        C436   1.277       .  A
O427       Cu432   2.015       .  S
O427        C436   1.279       .  A
O428       Cu432   2.005       .  S
O428        C435   1.277       .  A
O429       Cu432   2.009       .  S
O429        C434   1.278       .  A
O430       Cu432   2.004       .  S
O430        C433   1.277       .  A
Cu431      Cu432   2.373       .  S
C433        C587   1.469       .  S
C434        C597   1.479       .  S
C435        C567   1.477       .  S
C436        C554   1.478       .  S
O437       Cu445   2.007       .  S
O437        C447   1.278       .  A
O438       Cu445   2.004       .  S
O438        C448   1.277       .  A
O439       Cu445   2.006       .  S
O439        C449   1.278       .  A
O440       Cu445   2.015       .  S
O441       Cu446   2.003       .  S
O441        C450   1.277       .  A
O442       Cu446   2.014   1_455  S
O443       Cu446   2.006       .  S
O444       Cu446   2.009       .  S
C447        C534   1.477       .  S
C448        C544   1.469       .  S
C449        C524   1.478       .  S
C450        C577   1.476       .  S
O451       Cu459   2.016       .  S
O452       Cu459   2.005       .  S
O452        C462   1.278       .  A
O453       Cu459   2.008       .  S
O453        C463   1.278       .  A
O454       Cu459   2.006       .  S
O454        C464   1.278       .  A
O455       Cu460   2.005       .  S
O456       Cu460   2.008       .  S
O457       Cu460   2.018   1_455  S
O458       Cu460   2.006       .  S
O458        C461   1.278       .  A
C461        C514   1.480       .  S
C462        C557   1.481       .  S
C463        C537   1.472       .  S
C464        C547   1.475       .  S
O465       Cu473   2.003   1_554  S
O465        C475   1.277       .  A
O466       Cu473   2.014       .  S
O466        C680   1.279       .  A
O467       Cu473   2.004       .  S
O467        C681   1.278   1_556  A
O468       Cu473   2.009       .  S
O468        C682   1.278       .  A
O469       Cu474   2.007       .  S
O469        C478   1.277   1_554  A
O470       Cu474   2.003       .  S
O470        C477   1.277       .  A
O471       Cu474   2.008   1_556  S
O471        C476   1.278       .  A
O472       Cu474   2.017   1_565  S
O472        C679   1.279       .  A
Cu473      Cu678   2.373   1_556  S
Cu474      Cu677   2.373   1_544  S
C475        O676   1.279       .  A
C475        C604   1.476       .  S
C476        O670   1.279       .  A
C476        C517   1.479       .  S
C477        O671   1.278   1_544  A
C477        C494   1.471       .  S
C478        O672   1.278   1_545  A
C478        C504   1.473       .  S
O479       Cu487   2.008       .  S
O479        C693   1.278       .  A
O480       Cu487   2.003       .  S
O480        C694   1.277       .  A
O481       Cu487   2.006   1_556  S
O481        C491   1.278       .  A
O482       Cu487   2.017       .  S
O482        C696   1.280       .  A
O483       Cu488   2.005   1_554  S
O483        C492   1.278       .  A
O484       Cu488   2.016   1_565  S
O484        C695   1.279       .  A
O485       Cu488   2.004       .  S
O485        C490   1.277   1_556  A
O486       Cu488   2.007       .  S
O486        C489   1.278   1_556  A
Cu487      Cu692   2.373   1_554  S
Cu488      Cu691   2.373   1_546  S
C489        O683   1.278   1_545  A
C489        C507   1.476   1_554  S
C490        O684   1.277   1_545  A
C490        C497   1.469       .  S
C491        O688   1.279       .  A
C491        C527   1.479       .  S
C492        O686   1.280       .  A
C492        C564   1.481       .  S
C493        C498   1.396       .  A
C493        H499   1.083       .  S
C494        C699   1.404   1_544  A
C495        C698   1.404   1_556  A
C495        H500   1.083       .  S
C496        C701   1.403   1_556  A
C496        H501   1.083       .  S
C497        C700   1.403   1_544  A
C497        C498   1.403       .  A
C498        H502   1.083       .  S
C503        C504   1.404       .  A
C503        C508   1.398       .  A
C503        H509   1.083       .  S
C504        C709   1.403   1_546  A
C505        C708   1.403   1_554  A
C505        C506   1.398       .  A
C505        H510   1.083       .  S
C506        C711   1.405   1_554  A
C506        H511   1.083       .  S
C507        C710   1.405   1_546  A
C507        C508   1.405       .  A
C508        H512   1.083       .  S
C513        C514   1.406       .  A
C513        C518   1.398       .  A
C513        H519   1.083       .  S
C514        C515   1.405       .  A
C515        C516   1.400       .  A
C515        H520   1.083       .  S
C516        C517   1.406       .  A
C516        H521   1.083       .  S
C517        C518   1.404       .  A
C518        H522   1.083       .  S
C523        C524   1.404       .  A
C523        C528   1.399       .  A
C524        C525   1.406       .  A
C525        C526   1.399       .  A
C525        H530   1.083       .  S
C526        C527   1.404       .  A
C526        H531   1.083       .  S
C527        C528   1.406       .  A
C528        H532   1.083       .  S
C533        C534   1.405       .  A
C533        C538   1.398       .  A
C533        H539   1.083       .  S
C535        C536   1.398       .  A
C535        H540   1.083       .  S
C536        H541   1.083       .  S
C537        C538   1.403       .  A
C538        H542   1.083       .  S
C543        C752   1.397       .  A
C543        H549   1.083       .  S
C544        C749   1.402       .  A
C545        C748   1.402   1_545  A
C545        C546   1.397       .  A
C545        H550   1.083       .  S
C546        C547   1.405       .  A
C546        H551   1.083       .  S
C548        C747   1.397   1_545  A
C548        H552   1.083       .  S
C553        C554   1.403       .  A
C553        C558   1.399       .  A
C553        H559   1.083       .  S
C554        C555   1.406       .  A
C555        C556   1.399       .  A
C555        H560   1.084       .  S
C556        C557   1.405       .  A
C556        H561   1.083       .  S
C557        C558   1.407       .  A
C558        H562   1.083       .  S
C563        C564   1.407       .  A
C563        C568   1.399       .  A
C563        H569   1.083       .  S
C564        C565   1.405       .  A
C565        C566   1.399       .  A
C565        H570   1.083       .  S
C566        C567   1.405       .  A
C566        H571   1.083       .  S
C567        C568   1.403       .  A
C568        H572   1.083       .  S
C573        C574   1.406       .  A
C573        C578   1.398       .  A
C573        H579   1.083       .  S
C574        C575   1.404       .  A
C575        C576   1.398       .  A
C575        H580   1.083       .  S
C576        C577   1.405       .  A
C576        H581   1.084       .  S
C577        C578   1.403       .  A
C578        H582   1.083       .  S
C583        C792   1.397       .  A
C583        H589   1.083       .  S
C584        C789   1.405       .  A
C585        C788   1.405   1_545  A
C585        H590   1.083       .  S
C586        C587   1.403       .  A
C586        H591   1.083       .  S
C587        C588   1.403       .  A
C588        C787   1.397   1_545  A
C588        H592   1.083       .  S
C593        C594   1.403       .  A
C593        C598   1.398       .  A
C593        H599   1.083       .  S
C594        C595   1.403       .  A
C595        C596   1.398       .  A
C595        H600   1.084       .  S
C596        C597   1.406       .  A
C596        H601   1.083       .  S
C597        C598   1.406       .  A
C598        H602   1.083       .  S
C603        C604   1.405       .  A
C603        C608   1.398       .  A
C603        H609   1.083       .  S
C604        C605   1.403       .  A
C605        C606   1.399       .  A
C605        H610   1.083       .  S
C606        C607   1.407       .  A
C606        H611   1.083       .  S
C607        C608   1.405       .  A
C608        H612   1.083       .  S
O613       Cu621   2.005       .  S
O613        C623   1.278       .  A
O614       Cu621   2.016       .  S
O614        C624   1.280       .  A
O615       Cu621   2.006       .  S
O615        C625   1.278       .  A
O616       Cu621   2.007       .  S
O616        C626   1.277       .  A
O617       Cu622   2.009       .  S
O617        C626   1.278       .  A
O618       Cu622   2.007       .  S
O618        C625   1.278       .  A
O619       Cu622   2.002       .  S
O619        C624   1.277       .  A
O620       Cu622   2.014       .  S
O620        C623   1.279       .  A
Cu621      Cu622   2.373       .  S
C623        C811   1.480       .  S
C624        C778   1.479       .  S
C625        C788   1.475       .  S
C626        C798   1.473       .  S
O627       Cu635   2.005       .  S
O627        C637   1.277       .  A
O628       Cu635   2.010       .  S
O628        C638   1.278       .  A
O629       Cu635   2.016       .  S
O629        C639   1.279       .  A
O630       Cu635   2.007       .  S
O630        C640   1.277       .  A
O631       Cu636   2.015       .  S
O631        C640   1.279       .  A
O632       Cu636   2.005       .  S
O632        C639   1.277       .  A
O633       Cu636   2.009       .  S
O633        C638   1.278       .  A
O634       Cu636   2.004       .  S
O634        C637   1.277       .  A
Cu635      Cu636   2.373       .  S
C637        C791   1.469       .  S
C638        C801   1.479       .  S
C639        C771   1.477       .  S
C640        C758   1.478       .  S
O641       Cu649   2.007       .  S
O641        C651   1.278       .  A
O642       Cu649   2.004       .  S
O642        C652   1.277       .  A
O643       Cu649   2.006       .  S
O643        C653   1.278       .  A
O644       Cu649   2.014       .  S
O645       Cu650   2.003       .  S
O645        C654   1.277       .  A
O646       Cu650   2.014   1_455  S
O647       Cu650   2.006       .  S
O648       Cu650   2.009       .  S
C651        C738   1.477       .  S
C652        C748   1.469       .  S
C653        C728   1.478       .  S
C654        C781   1.476       .  S
O655       Cu663   2.016       .  S
O656       Cu663   2.005       .  S
O656        C666   1.278       .  A
O657       Cu663   2.008       .  S
O657        C667   1.278       .  A
O658       Cu663   2.006       .  S
O658        C668   1.278       .  A
O659       Cu664   2.005       .  S
O660       Cu664   2.008       .  S
O661       Cu664   2.018   1_455  S
O662       Cu664   2.006       .  S
O662        C665   1.278       .  A
C665        C718   1.480       .  S
C666        C761   1.481       .  S
C667        C741   1.472       .  S
C668        C751   1.475       .  S
O669       Cu677   2.003   1_554  S
O669        C679   1.277       .  A
O670       Cu677   2.014   1_545  S
O671       Cu677   2.004       .  S
O672       Cu677   2.009       .  S
O673       Cu678   2.007       .  S
O673        C682   1.277   1_554  A
O674       Cu678   2.003       .  S
O674        C681   1.277       .  A
O675       Cu678   2.008   1_556  S
O675        C680   1.278       .  A
O676       Cu678   2.017       .  S
C679        C808   1.476       .  S
C680        C721   1.479       .  S
C681        C698   1.471       .  S
C682        C708   1.473       .  S
O683       Cu691   2.008       .  S
O684       Cu691   2.004       .  S
O685       Cu691   2.006   1_556  S
O685        C695   1.278       .  A
O686       Cu691   2.017   1_545  S
O687       Cu692   2.005   1_554  S
O687        C696   1.278       .  A
O688       Cu692   2.016       .  S
O689       Cu692   2.004       .  S
O689        C694   1.277   1_556  A
O690       Cu692   2.007       .  S
O690        C693   1.278   1_556  A
C693        C711   1.476   1_554  S
C694        C701   1.469       .  S
C695        C731   1.479       .  S
C696        C768   1.481       .  S
C697        C702   1.396       .  A
C697        H703   1.083       .  S
C699        H704   1.083       .  S
C700        H705   1.083       .  S
C701        C702   1.403       .  A
C702        H706   1.083       .  S
C707        C708   1.404       .  A
C707        C712   1.398       .  A
C707        H713   1.083       .  S
C709        C710   1.398       .  A
C709        H714   1.083       .  S
C710        H715   1.083       .  S
C711        C712   1.405       .  A
C712        H716   1.083       .  S
C717        C718   1.406       .  A
C717        C722   1.398       .  A
C717        H723   1.083       .  S
C718        C719   1.405       .  A
C719        C720   1.400       .  A
C719        H724   1.083       .  S
C720        C721   1.406       .  A
C720        H725   1.083       .  S
C721        C722   1.404       .  A
C722        H726   1.083       .  S
C727        C728   1.404       .  A
C727        C732   1.399       .  A
C728        C729   1.406       .  A
C729        C730   1.399       .  A
C729        H734   1.083       .  S
C730        C731   1.404       .  A
C730        H735   1.083       .  S
C731        C732   1.406       .  A
C732        H736   1.083       .  S
C737        C738   1.405       .  A
C737        C742   1.398       .  A
C737        H743   1.083       .  S
C739        C740   1.398       .  A
C739        H744   1.083       .  S
C740        H745   1.083       .  S
C741        C742   1.403       .  A
C742        H746   1.083       .  S
C747        H753   1.083       .  S
C749        C750   1.397       .  A
C749        H754   1.083       .  S
C750        C751   1.405       .  A
C750        H755   1.083       .  S
C752        H756   1.083       .  S
C757        C758   1.403       .  A
C757        C762   1.399       .  A
C757        H763   1.083       .  S
C758        C759   1.406       .  A
C759        C760   1.399       .  A
C759        H764   1.084       .  S
C760        C761   1.405       .  A
C760        H765   1.083       .  S
C761        C762   1.407       .  A
C762        H766   1.083       .  S
C767        C768   1.407       .  A
C767        C772   1.399       .  A
C767        H773   1.083       .  S
C768        C769   1.405       .  A
C769        C770   1.399       .  A
C769        H774   1.083       .  S
C770        C771   1.405       .  A
C770        H775   1.083       .  S
C771        C772   1.403       .  A
C772        H776   1.083       .  S
C777        C778   1.406       .  A
C777        C782   1.398       .  A
C777        H783   1.083       .  S
C778        C779   1.404       .  A
C779        C780   1.398       .  A
C779        H784   1.083       .  S
C780        C781   1.405       .  A
C780        H785   1.084       .  S
C781        C782   1.403       .  A
C782        H786   1.083       .  S
C787        H793   1.083       .  S
C789        H794   1.083       .  S
C790        C791   1.403       .  A
C790        H795   1.083       .  S
C791        C792   1.403       .  A
C792        H796   1.083       .  S
C797        C798   1.403       .  A
C797        C802   1.398       .  A
C797        H803   1.083       .  S
C798        C799   1.403       .  A
C799        C800   1.398       .  A
C799        H804   1.084       .  S
C800        C801   1.406       .  A
C800        H805   1.083       .  S
C801        C802   1.406       .  A
C802        H806   1.083       .  S
C807        C808   1.405       .  A
C807        C812   1.398       .  A
C807        H813   1.083       .  S
C808        C809   1.403       .  A
C809        C810   1.399       .  A
C809        H814   1.083       .  S
C810        C811   1.407       .  A
C810        H815   1.083       .  S
C811        C812   1.405       .  A
C812        H816   1.083       .  S
