geometry optimzed in LAMMPS
_audit_creation_date              2020-12-01 
_audit_creation_method            'lammps2cif' 
_symmetry_space_group_name_H-M    'P1' 
_symmetry_Int_Tables_number       1 
_symmetry_cell_setting            triclinic 
loop_ 
_symmetry_equiv_pos_as_xyz 
  x,y,z 
_cell_length_a                    29.83781228 
_cell_length_b                    29.929203527113888 
_cell_length_c                    23.672655774075736 
_cell_angle_alpha                 91.99396893511413 
_cell_angle_beta                  88.44311608737603 
_cell_angle_gamma                 89.85656281627519 
loop_ 
_atom_site_label 
_atom_site_type_symbol 
_atom_site_fract_x 
_atom_site_fract_y 
_atom_site_fract_z 
_atom_site_charge 
C1          C  0.23375740  0.23357997  0.75037705    -0.02300
O2          O  0.27665027  0.02385599  0.45544060    -0.79900
O3          O  0.21033750  0.36697583  0.44786735    -0.79900
O4          O  0.31082405  0.42875143  0.53319637    -0.80000
O5          O  0.20581439  0.03080547  0.39729249    -0.79900
O6          O  0.27619722  0.42790020  0.45373929    -0.80000
O7          O  0.21309246  0.08798729  0.45849230    -0.79900
O8          O  0.20526123  0.42612270  0.39347934    -0.79900
O9          O  0.31316074  0.02159672  0.53367381    -0.80000
C10         C  0.31033277  0.03445281  0.48337858     1.09800
C11         C  0.20905063  0.38279137  0.39910291     1.09700
C12         C  0.30832299  0.41521884  0.48210337     1.09800
C13         C  0.20875042  0.07398111  0.40813995     1.09700
O14         O  0.16732703  0.05169354  0.54492599    -0.79900
O15         O  0.24346297  0.38114423  0.55262203    -0.80000
O16         O  0.24690084  0.02660001  0.62561053    -0.79900
O17         O  0.12836721  0.43462286  0.46978752    -0.79900
O18         O  0.16403397  0.40551941  0.53693324    -0.80000
O19         O  0.24963675  0.07331172  0.55679567    -0.79900
O20         O  0.13051868  0.02534775  0.47464672    -0.79900
O21         O  0.24446040  0.43111397  0.62293072    -0.80000
Co22       Co  0.21995047  0.03599688  0.49810210     1.51500
Co23       Co  0.21806193  0.41867950  0.49323926     1.51700
Co24       Co  0.27452483  0.47711652  0.57524207     1.51600
Co25       Co  0.17507147  0.47888128  0.44450422     1.51500
O26         O  0.21769818  0.47752752  0.52364161    -1.41900
C27         C  0.13226908  0.05068787  0.51811473     1.09700
C28         C  0.24166487  0.39056239  0.60521376     1.09800
C29         C  0.24798742  0.06663194  0.60907812     1.09700
C30         C  0.12893835  0.40910262  0.51086644     1.09700
N31         N  0.46170802  0.29356798  0.48168763    -0.36400
N32         N  0.39746527  0.22404360  0.45418855    -0.57000
N33         N  0.46445930  0.16027879  0.48714749    -0.36400
N34         N  0.02788068  0.22992631  0.51318249    -0.57000
C35         C  0.43065242  0.31582894  0.45317140     0.27200
C36         C  0.99884501  0.31924837  0.48241701     0.27200
C37         C  0.43444941  0.13373081  0.46067848     0.27200
C38         C  0.00291541  0.13655006  0.48934123     0.27200
C39         C  0.36988587  0.26001409  0.45658408     0.35800
C40         C  0.37143423  0.18739909  0.45905108     0.35800
C41         C  0.04909843  0.26754248  0.53037333     0.35800
C42         C  0.05093082  0.19513874  0.53275974     0.35800
C43         C  0.44839772  0.35570882  0.43466491    -0.21700
C44         C  0.49156479  0.35784438  0.45302537    -0.21700
C45         C  0.45412278  0.09295372  0.44518646    -0.21700
C46         C  0.49743293  0.09476944  0.46306086    -0.21700
C47         C  0.32567553  0.24616924  0.46162062    -0.22700
C48         C  0.32664975  0.19995908  0.46305206    -0.22700
C49         C  0.08634764  0.25671509  0.56101565    -0.22700
C50         C  0.08754101  0.21063530  0.56247723    -0.22700
C51         C  0.38503903  0.30458490  0.45209533    -0.18100
C52         C  0.03739410  0.31067183  0.51334022    -0.18100
C53         C  0.04125527  0.14998313  0.51893721    -0.18100
C54         C  0.38842596  0.14314747  0.45748975    -0.18100
H55         H  0.43134785  0.38138304  0.41224432     0.14800
H56         H  0.01442637  0.38540321  0.44702359     0.14800
H57         H  0.43843171  0.06437909  0.42467659     0.14800
H58         H  0.02166427  0.06781970  0.45865591     0.14800
H59         H  0.29598534  0.26706078  0.46393645     0.13100
H60         H  0.29785833  0.17819567  0.46663184     0.13100
H61         H  0.11070883  0.27947981  0.57895361     0.13100
H62         H  0.11298591  0.19085031  0.58180468     0.13100
H63         H  0.45540294  0.26629921  0.50683088     0.26400
H64         H  0.45697004  0.18990884  0.50985277     0.26400
C65         C  0.22063204  0.22274903  0.25056221    -0.02300
N66         N  0.22137860  0.02524752  0.99464617    -0.36400
N67         N  0.15772362  0.45688149  0.02260841    -0.57000
N68         N  0.22977524  0.39506729  0.04954531    -0.36400
N69         N  0.29353801  0.46393838  0.01848390    -0.57000
C70         C  0.18365341  0.04392817  0.97531350     0.27200
C71         C  0.25677250  0.04823642  0.97403529     0.27200
C72         C  0.19461212  0.36683377  0.04398355     0.27200
C73         C  0.26795704  0.37067771  0.04200165     0.27200
C74         C  0.12916849  0.99158841  0.01838327     0.35800
C75         C  0.13401438  0.42409432  0.04692510     0.35800
C76         C  0.31747077  0.00179376  0.01278365     0.35800
C77         C  0.32164506  0.43385405  0.03988970     0.35400
C78         C  0.19518301  0.07987286  0.94245756    -0.21700
C79         C  0.24141961  0.08264581  0.94173889    -0.21700
C80         C  0.21060491  0.32357496  0.03440729    -0.21700
C81         C  0.25694112  0.32602722  0.03303473    -0.21700
C82         C  0.08720809  0.48096242  0.04055620    -0.22700
C83         C  0.09028166  0.43819329  0.05869640    -0.22700
C84         C  0.36089469  0.49567755  0.03078508    -0.22700
C85         C  0.36352753  0.45265789  0.04787560    -0.22700
C86         C  0.13936591  0.03106964  0.99019881    -0.18100
C87         C  0.30205167  0.04055269  0.98721305    -0.18100
C88         C  0.31210540  0.38812753  0.04418019    -0.18100
C89         C  0.14875926  0.37955036  0.04861109    -0.18100
H90         H  0.17265299  0.10219771  0.92195136     0.14800
H91         H  0.26139029  0.10746323  0.92048263     0.14800
H92         H  0.19097958  0.29347938  0.02852449     0.14800
H93         H  0.27981751  0.29823144  0.02538624     0.14800
H94         H  0.05717059  0.00136380  0.04204387     0.13100
H95         H  0.06294298  0.41897744  0.07637486     0.13100
H96         H  0.38828618  0.01930230  0.03036701     0.13100
H97         H  0.39330729  0.43664017  0.06284485     0.13100
H98         H  0.22279943  0.00172349  0.02573905     0.26400
H99         H  0.22777252  0.42872349  0.06197534     0.26400
O100        O  0.02843985  0.26802575  0.04371399    -0.79900
O101        O  0.36470692  0.22256001  0.05312941    -0.79900
O102        O  0.43748952  0.31251389  0.96686437    -0.80000
O103        O  0.02751780  0.20062916  0.10410712    -0.79900
O104        O  0.43416757  0.27904743  0.04652259    -0.80000
O105        O  0.08476495  0.19745168  0.04241933    -0.79900
O106        O  0.42271090  0.20905519  0.10764898    -0.79900
O107        O  0.03031091  0.30393483  0.96541599    -0.80000
C108        C  0.04260058  0.30005297  0.01581082     1.09800
C109        C  0.38004142  0.21795452  0.10181995     1.09700
C110        C  0.42388261  0.31169900  0.01794942     1.09800
C111        C  0.07093392  0.19903886  0.09321293     1.09700
O112        O  0.04254688  0.15481538  0.95676373    -0.79900
O113        O  0.38248403  0.25232121  0.94824676    -0.80000
O114        O  0.02681409  0.23793320  0.87441926    -0.79900
O115        O  0.42401564  0.13169933  0.03098648    -0.79900
O116        O  0.39621553  0.17047711  0.96546487    -0.80000
O117        O  0.07416997  0.23344794  0.94296037    -0.79900
O118        O  0.01475966  0.12412390  0.03016488    -0.79900
O119        O  0.43163186  0.24488162  0.87786712    -0.80000
Co120      Co  0.03363006  0.20968530  0.00230847     1.51500
Co121      Co  0.41686639  0.22271322  0.00784187     1.51700
Co122      Co  0.48116541  0.27055246  0.92486057     1.51600
Co123      Co  0.47257455  0.17377543  0.05730046     1.51500
O124        O  0.47523735  0.21450191  0.97691239    -1.41900
C125        C  0.03937479  0.12148050  0.98616071     1.09700
C126        C  0.39106469  0.24809436  0.89567893     1.09800
C127        C  0.06678453  0.23350928  0.89075644     1.09700
C128        C  0.39770248  0.13495829  0.99058610     1.09700
C129        C  0.36539634  0.10109637  0.97835602    -0.13100
C130        C  0.33509982  0.07467350  0.97681662    -0.14600
C131        C  0.07996573  0.32546220  0.03601756    -0.13100
C132        C  0.11359109  0.34634260  0.04580085    -0.14600
C133        C  0.35083055  0.35857765  0.04343114    -0.13100
C134        C  0.38603881  0.33885729  0.03613817    -0.14600
C135        C  0.10217954  0.06027891  0.97843431    -0.13100
C136        C  0.07058547  0.08537663  0.97691807    -0.14600
C137        C  0.34289592  0.19495115  0.19339487    -0.13100
C138        C  0.34748308  0.22538054  0.14991134     0.09000
C139        C  0.31376322  0.25769559  0.14473559    -0.13100
C140        C  0.27451839  0.25703836  0.17817813    -0.13100
C141        C  0.26698166  0.22358349  0.21791553     0.09000
C142        C  0.30346286  0.19446735  0.22761366    -0.13100
H143        H  0.36847485  0.16982803  0.19870989     0.13000
H144        H  0.31672905  0.28216178  0.11229134     0.13000
H145        H  0.24868597  0.28152821  0.17094813     0.13000
H146        H  0.30178525  0.17055252  0.26067222     0.13000
C147        C  0.13542212  0.21793647  0.23058838    -0.13100
C148        C  0.18064736  0.21600190  0.20994632     0.09000
C149        C  0.18758221  0.20375053  0.15245455    -0.13100
C150        C  0.15175080  0.19774968  0.11663516    -0.13100
C151        C  0.10684054  0.20288908  0.13613877     0.09000
C152        C  0.09898103  0.21223071  0.19405867    -0.13100
H153        H  0.12835923  0.22499937  0.27511120     0.13000
H154        H  0.22070527  0.19774041  0.13423917     0.13000
H155        H  0.15978337  0.18892785  0.07275132     0.13000
H156        H  0.06501013  0.21557809  0.21093457     0.13000
C157        C  0.25096153  0.31810131  0.35645476    -0.13100
C158        C  0.21689542  0.34999756  0.35124843     0.09000
C159        C  0.18563561  0.34299489  0.30863475    -0.13100
C160        C  0.18689966  0.30335290  0.27448361    -0.13100
C161        C  0.21869717  0.26905407  0.28344036     0.09000
C162        C  0.25213738  0.27876725  0.32303746    -0.13100
H163        H  0.27546336  0.32246138  0.38901164     0.13000
H164        H  0.15883153  0.36690220  0.30377785     0.13000
H165        H  0.16234897  0.29981087  0.24199824     0.13000
H166        H  0.27821800  0.25451465  0.33014785     0.13000
C167        C  0.22209013  0.13781074  0.27057228    -0.13100
C168        C  0.21675558  0.18281483  0.29111031     0.09000
C169        C  0.20382635  0.18932387  0.34842599    -0.13100
C170        C  0.20056447  0.15359229  0.38429855    -0.13100
C171        C  0.20930760  0.10926795  0.36497146     0.09000
C172        C  0.21914030  0.10151723  0.30716808    -0.13100
H173        H  0.22973620  0.13090994  0.22614655     0.13000
H174        H  0.19526120  0.22197825  0.36642694     0.13000
H175        H  0.19098788  0.16108851  0.42809070     0.13000
H176        H  0.22522421  0.06783492  0.29052798     0.13000
C177        C  0.33424993  0.37699159  0.46224374    -0.13100
C178        C  0.35415325  0.34210962  0.45341054    -0.14600
C179        C  0.09845753  0.08382355  0.53039234    -0.13100
C180        C  0.07324868  0.11532626  0.53052085    -0.14600
C181        C  0.09319138  0.37868277  0.52170965    -0.13100
C182        C  0.06776382  0.34755749  0.52263793    -0.14600
C183        C  0.33813855  0.07062232  0.46490636    -0.13100
C184        C  0.35867618  0.10481878  0.45758971    -0.14600
C185        C  0.27311707  0.25951530  0.84248659    -0.13100
C186        C  0.27523337  0.23626055  0.78941161     0.09000
C187        C  0.31820511  0.22112246  0.76974160    -0.13100
C188        C  0.35613173  0.22586393  0.80317025    -0.13100
C189        C  0.35267033  0.24656097  0.85704450     0.09000
C190        C  0.31084728  0.26387363  0.87591168    -0.13100
H191        H  0.24237204  0.27546147  0.85791615     0.13000
H192        H  0.32307655  0.20555150  0.72822860     0.13000
H193        H  0.38800812  0.21261256  0.78720979     0.13000
H194        H  0.30725569  0.28119164  0.91674451     0.13000
C195        C  0.14758079  0.25102825  0.76630791    -0.13100
C196        C  0.18817115  0.23231136  0.78529788     0.09000
C197        C  0.18527627  0.21024167  0.83717091    -0.13100
C198        C  0.14554455  0.20947226  0.86959063    -0.13100
C199        C  0.10629636  0.22978763  0.85131042     0.09000
C200        C  0.10742751  0.24970615  0.79872181    -0.13100
H201        H  0.14585055  0.26749771  0.72684093     0.13000
H202        H  0.21423623  0.19388151  0.85377152     0.13000
H203        H  0.14577269  0.19327203  0.90981855     0.13000
H204        H  0.07770254  0.26572862  0.78353033     0.13000
C205        C  0.21157924  0.27724339  0.66182878    -0.13100
C206        C  0.23452067  0.27634869  0.71336371     0.09000
C207        C  0.25656234  0.31653468  0.73043813    -0.13100
C208        C  0.25747804  0.35415537  0.69671279    -0.13100
C209        C  0.23689465  0.35311425  0.64437911     0.09000
C210        C  0.21356233  0.31440655  0.62756098    -0.13100
H211        H  0.19246602  0.24856875  0.64730984     0.13000
H212        H  0.27366521  0.31982813  0.76980737     0.13000
H213        H  0.27558034  0.38362881  0.71083911     0.13000
H214        H  0.19668155  0.31284917  0.58759351     0.13000
C215        C  0.25744285  0.18775862  0.65880281    -0.13100
C216        C  0.23814272  0.18874687  0.71400500     0.09000
C217        C  0.22779133  0.14647679  0.73680579    -0.13100
C218        C  0.23198987  0.10636467  0.70415323    -0.13100
C219        C  0.24751919  0.10695023  0.64786834     0.09000
C220        C  0.26104464  0.14810817  0.62623417    -0.13100
H221        H  0.27114808  0.21749468  0.64047975     0.13000
H222        H  0.21606226  0.14356713  0.77984016     0.13000
H223        H  0.22214595  0.07513686  0.72257819     0.13000
H224        H  0.27495804  0.14980991  0.58360650     0.13000
C225        C  0.23375731  0.73358006  0.75037718    -0.02300
O226        O  0.27665037  0.52385596  0.45544050    -0.79900
O227        O  0.21033755  0.86697594  0.44786730    -0.79900
O228        O  0.31082403  0.92875121  0.53319635    -0.80000
O229        O  0.20581438  0.53080547  0.39729250    -0.79900
O230        O  0.27619734  0.92790022  0.45373918    -0.80000
O231        O  0.21309259  0.58798736  0.45849217    -0.79900
O232        O  0.20526117  0.92612278  0.39347924    -0.79900
O233        O  0.31316078  0.52159678  0.53367377    -0.80000
C234        C  0.31033280  0.53445286  0.48337853     1.09800
C235        C  0.20905063  0.88279146  0.39910285     1.09700
C236        C  0.30832301  0.91521873  0.48210333     1.09800
C237        C  0.20875042  0.57398109  0.40813988     1.09700
O238        O  0.16732697  0.55169371  0.54492590    -0.79900
O239        O  0.24346297  0.88114421  0.55262192    -0.80000
O240        O  0.24690087  0.52660018  0.62561050    -0.79900
O241        O  0.12836704  0.93462282  0.46978744    -0.79900
O242        O  0.16403395  0.90551951  0.53693320    -0.80000
O243        O  0.24963686  0.57331195  0.55679562    -0.79900
O244        O  0.13051865  0.52534777  0.47464683    -0.79900
O245        O  0.24446031  0.93111390  0.62293064    -0.80000
Co246      Co  0.21995052  0.53599692  0.49810206     1.51500
Co247      Co  0.21806195  0.91867957  0.49323921     1.51700
Co248      Co  0.27452479  0.97711644  0.57524202     1.51600
Co249      Co  0.17507141  0.97888128  0.44450413     1.51500
O250        O  0.21769807  0.97752759  0.52364159    -1.41900
C251        C  0.13226904  0.55068795  0.51811475     1.09700
C252        C  0.24166477  0.89056231  0.60521364     1.09800
C253        C  0.24798749  0.56663214  0.60907807     1.09700
C254        C  0.12893827  0.90910271  0.51086648     1.09700
N255        N  0.46170791  0.79356770  0.48168769    -0.36400
N256        N  0.39746505  0.72404373  0.45418854    -0.57000
N257        N  0.46445913  0.66027931  0.48714806    -0.36400
N258        N  0.02788085  0.72992626  0.51318272    -0.57000
C259        C  0.43065221  0.81582887  0.45317145     0.27200
C260        C  0.99884491  0.81924835  0.48241690     0.27200
C261        C  0.43444933  0.63373088  0.46067871     0.27200
C262        C  0.00291534  0.63655020  0.48934145     0.27200
C263        C  0.36988549  0.76001419  0.45658408     0.35800
C264        C  0.37143409  0.68739920  0.45905107     0.35800
C265        C  0.04909855  0.76754245  0.53037335     0.35800
C266        C  0.05093114  0.69513861  0.53275990     0.35800
C267        C  0.44839744  0.85570865  0.43466497    -0.21700
C268        C  0.49156443  0.85784412  0.45302530    -0.21700
C269        C  0.45412284  0.59295398  0.44518658    -0.21700
C270        C  0.49743309  0.59476941  0.46306092    -0.21700
C271        C  0.32567501  0.74616943  0.46162066    -0.22700
C272        C  0.32664964  0.69995924  0.46305205    -0.22700
C273        C  0.08634787  0.75671490  0.56101570    -0.22700
C274        C  0.08754147  0.71063497  0.56247751    -0.22700
C275        C  0.38503880  0.80458488  0.45209534    -0.18100
C276        C  0.03739398  0.81067183  0.51334034    -0.18100
C277        C  0.04125523  0.64998323  0.51893736    -0.18100
C278        C  0.38842589  0.64314764  0.45748985    -0.18100
H279        H  0.43134784  0.88138307  0.41224443     0.14800
H280        H  0.01442637  0.88540315  0.44702320     0.14800
H281        H  0.43843167  0.56437941  0.42467662     0.14800
H282        H  0.02166381  0.56781978  0.45865614     0.14800
H283        H  0.29598471  0.76706080  0.46393646     0.13100
H284        H  0.29785847  0.67819554  0.46663182     0.13100
H285        H  0.11070895  0.77947986  0.57895334     0.13100
H286        H  0.11298629  0.69084991  0.58180499     0.13100
H287        H  0.45540307  0.76629928  0.50683008     0.26400
H288        H  0.45697051  0.68990756  0.50985128     0.26400
C289        C  0.22063193  0.72274895  0.25056227    -0.02300
N290        N  0.22137853  0.52524770  0.99464617    -0.36400
N291        N  0.15772393  0.95688116  0.02260835    -0.57000
N292        N  0.22977540  0.89506643  0.04954490    -0.36400
N293        N  0.29353784  0.96393822  0.01848389    -0.57000
C294        C  0.18365338  0.54392834  0.97531343     0.27200
C295        C  0.25677253  0.54823655  0.97403528     0.27200
C296        C  0.19461222  0.86683363  0.04398344     0.27200
C297        C  0.26795710  0.87067740  0.04200153     0.27200
C298        C  0.12916799  0.49158878  0.01838329     0.35800
C299        C  0.13401453  0.92409400  0.04692504     0.35800
C300        C  0.31747094  0.50179391  0.01278371     0.35800
C301        C  0.32164485  0.93385385  0.03988967     0.35400
C302        C  0.19518310  0.57987302  0.94245750    -0.21700
C303        C  0.24141965  0.58264599  0.94173883    -0.21700
C304        C  0.21060489  0.82357466  0.03440726    -0.21700
C305        C  0.25694116  0.82602676  0.03303465    -0.21700
C306        C  0.08720898  0.98096174  0.04055618    -0.22700
C307        C  0.09028191  0.93819282  0.05869653    -0.22700
C308        C  0.36089448  0.99567733  0.03078504    -0.22700
C309        C  0.36352724  0.95265765  0.04787564    -0.22700
C310        C  0.13936587  0.53106987  0.99019886    -0.18100
C311        C  0.30205175  0.54055278  0.98721303    -0.18100
C312        C  0.31210543  0.88812719  0.04418018    -0.18100
C313        C  0.14875931  0.87955005  0.04861108    -0.18100
H314        H  0.17265327  0.60219807  0.92195131     0.14800
H315        H  0.26138999  0.60746369  0.92048259     0.14800
H316        H  0.19097922  0.79347935  0.02852439     0.14800
H317        H  0.27981758  0.79823110  0.02538624     0.14800
H318        H  0.05716963  0.50136439  0.04204380     0.13100
H319        H  0.06294280  0.91897745  0.07637483     0.13100
H320        H  0.38828637  0.51930246  0.03036699     0.13100
H321        H  0.39330687  0.93663971  0.06284499     0.13100
H322        H  0.22279923  0.50172372  0.02573906     0.26400
H323        H  0.22777262  0.92872517  0.06197579     0.26400
O324        O  0.02843989  0.76802572  0.04371394    -0.79900
O325        O  0.36470684  0.72255982  0.05312941    -0.79900
O326        O  0.43748947  0.81251387  0.96686444    -0.80000
O327        O  0.02751786  0.70062923  0.10410711    -0.79900
O328        O  0.43416743  0.77904741  0.04652267    -0.80000
O329        O  0.08476505  0.69745158  0.04241939    -0.79900
O330        O  0.42271092  0.70905518  0.10764894    -0.79900
O331        O  0.03031093  0.80393470  0.96541598    -0.80000
C332        C  0.04260062  0.80005292  0.01581082     1.09800
C333        C  0.38004142  0.71795439  0.10181994     1.09700
C334        C  0.42388249  0.81169893  0.01794946     1.09800
C335        C  0.07093400  0.69903885  0.09321297     1.09700
O336        O  0.04254693  0.65481534  0.95676369    -0.79900
O337        O  0.38248392  0.75232113  0.94824666    -0.80000
O338        O  0.02681419  0.73793320  0.87441923    -0.79900
O339        O  0.42401560  0.63169930  0.03098666    -0.79900
O340        O  0.39621553  0.67047696  0.96546487    -0.80000
O341        O  0.07417007  0.73344792  0.94296037    -0.79900
O342        O  0.01475962  0.62412403  0.03016492    -0.79900
O343        O  0.43163195  0.74488158  0.87786710    -0.80000
Co344      Co  0.03363016  0.70968525  0.00230844     1.51500
Co345      Co  0.41686627  0.72271315  0.00784186     1.51700
Co346      Co  0.48116540  0.77055239  0.92486059     1.51600
Co347      Co  0.47257452  0.67377538  0.05730050     1.51500
O348        O  0.47523720  0.71450171  0.97691231    -1.41900
C349        C  0.03937481  0.62148052  0.98616077     1.09700
C350        C  0.39106474  0.74809425  0.89567883     1.09800
C351        C  0.06678460  0.73350918  0.89075643     1.09700
C352        C  0.39770262  0.63495815  0.99058607     1.09700
C353        C  0.36539645  0.60109635  0.97835614    -0.13100
C354        C  0.33509979  0.57467367  0.97681661    -0.14600
C355        C  0.07996575  0.82546213  0.03601772    -0.13100
C356        C  0.11359113  0.84634251  0.04580096    -0.14600
C357        C  0.35083067  0.85857770  0.04343115    -0.13100
C358        C  0.38603882  0.83885724  0.03613825    -0.14600
C359        C  0.10217967  0.56027900  0.97843415    -0.13100
C360        C  0.07058545  0.58537652  0.97691809    -0.14600
C361        C  0.34289603  0.69495097  0.19339486    -0.13100
C362        C  0.34748313  0.72538021  0.14991143     0.09000
C363        C  0.31376335  0.75769521  0.14473591    -0.13100
C364        C  0.27451842  0.75703824  0.17817832    -0.13100
C365        C  0.26698157  0.72358337  0.21791558     0.09000
C366        C  0.30346293  0.69446726  0.22761372    -0.13100
H367        H  0.36847492  0.66982775  0.19870948     0.13000
H368        H  0.31672943  0.78216124  0.11229150     0.13000
H369        H  0.24868612  0.78152813  0.17094784     0.13000
H370        H  0.30178545  0.67055243  0.26067226     0.13000
C371        C  0.13542214  0.71793653  0.23058832    -0.13100
C372        C  0.18064730  0.71600178  0.20994629     0.09000
C373        C  0.18758223  0.70375047  0.15245447    -0.13100
C374        C  0.15175092  0.69774950  0.11663499    -0.13100
C375        C  0.10684064  0.70288915  0.13613871     0.09000
C376        C  0.09898112  0.71223081  0.19405869    -0.13100
H377        H  0.12835922  0.72499964  0.27511108     0.13000
H378        H  0.22070535  0.69774021  0.13423932     0.13000
H379        H  0.15978356  0.68892713  0.07275131     0.13000
H380        H  0.06501033  0.71557886  0.21093472     0.13000
C381        C  0.25096103  0.81810142  0.35645449    -0.13100
C382        C  0.21689521  0.84999770  0.35124829     0.09000
C383        C  0.18563544  0.84299496  0.30863469    -0.13100
C384        C  0.18689951  0.80335294  0.27448336    -0.13100
C385        C  0.21869689  0.76905412  0.28344020     0.09000
C386        C  0.25213695  0.77876756  0.32303720    -0.13100
H387        H  0.27546265  0.82246090  0.38901178     0.13000
H388        H  0.15883191  0.86690274  0.30377741     0.13000
H389        H  0.16234882  0.79981075  0.24199811     0.13000
H390        H  0.27821794  0.75451532  0.33014770     0.13000
C391        C  0.22209014  0.63781053  0.27057232    -0.13100
C392        C  0.21675558  0.68281475  0.29111050     0.09000
C393        C  0.20382632  0.68932386  0.34842609    -0.13100
C394        C  0.20056436  0.65359218  0.38429851    -0.13100
C395        C  0.20930752  0.60926766  0.36497123     0.09000
C396        C  0.21914030  0.60151662  0.30716779    -0.13100
H397        H  0.22973621  0.63091039  0.22614648     0.13000
H398        H  0.19526127  0.72197834  0.36642695     0.13000
H399        H  0.19098740  0.66108835  0.42809060     0.13000
H400        H  0.22522415  0.56783425  0.29052767     0.13000
C401        C  0.33424982  0.87699154  0.46224374    -0.13100
C402        C  0.35415310  0.84210964  0.45341057    -0.14600
C403        C  0.09845756  0.58382358  0.53039238    -0.13100
C404        C  0.07324862  0.61532616  0.53052072    -0.14600
C405        C  0.09319137  0.87868281  0.52170969    -0.13100
C406        C  0.06776384  0.84755752  0.52263771    -0.14600
C407        C  0.33813851  0.57062231  0.46490625    -0.13100
C408        C  0.35867627  0.60481869  0.45758967    -0.14600
C409        C  0.27311692  0.75951543  0.84248672    -0.13100
C410        C  0.27523331  0.73626075  0.78941169     0.09000
C411        C  0.31820524  0.72112247  0.76974156    -0.13100
C412        C  0.35613207  0.72586392  0.80317000    -0.13100
C413        C  0.35267052  0.74656083  0.85704418     0.09000
C414        C  0.31084738  0.76387352  0.87591140    -0.13100
H415        H  0.24237208  0.77546201  0.85791638     0.13000
H416        H  0.32307661  0.70555159  0.72822852     0.13000
H417        H  0.38800868  0.71261322  0.78720942     0.13000
H418        H  0.30725606  0.78119111  0.91674453     0.13000
C419        C  0.14758060  0.75102817  0.76630782    -0.13100
C420        C  0.18817104  0.73231142  0.78529792     0.09000
C421        C  0.18527623  0.71024162  0.83717090    -0.13100
C422        C  0.14554454  0.70947231  0.86959069    -0.13100
C423        C  0.10629633  0.72978752  0.85131038     0.09000
C424        C  0.10742741  0.74970613  0.79872183    -0.13100
H425        H  0.14585013  0.76749739  0.72684066     0.13000
H426        H  0.21423624  0.69388147  0.85377148     0.13000
H427        H  0.14577257  0.69327200  0.90981855     0.13000
H428        H  0.07770238  0.76572848  0.78353029     0.13000
C429        C  0.21157913  0.77724340  0.66182896    -0.13100
C430        C  0.23452053  0.77634868  0.71336390     0.09000
C431        C  0.25656220  0.81653454  0.73043815    -0.13100
C432        C  0.25747771  0.85415506  0.69671258    -0.13100
C433        C  0.23689440  0.85311404  0.64437889     0.09000
C434        C  0.21356218  0.81440636  0.62756091    -0.13100
H435        H  0.19246597  0.74856877  0.64731004     0.13000
H436        H  0.27366512  0.81982817  0.76980736     0.13000
H437        H  0.27557959  0.88362869  0.71083896     0.13000
H438        H  0.19668146  0.81284859  0.58759341     0.13000
C439        C  0.25744296  0.68775902  0.65880278    -0.13100
C440        C  0.23814277  0.68874712  0.71400502     0.09000
C441        C  0.22779136  0.64647704  0.73680563    -0.13100
C442        C  0.23199003  0.60636516  0.70415288    -0.13100
C443        C  0.24751916  0.60695059  0.64786810     0.09000
C444        C  0.26104471  0.64810846  0.62623406    -0.13100
H445        H  0.27114778  0.71749520  0.64047968     0.13000
H446        H  0.21606213  0.64356695  0.77983992     0.13000
H447        H  0.22214595  0.57513735  0.72257776     0.13000
H448        H  0.27495795  0.64980998  0.58360634     0.13000
C449        C  0.73375738  0.23357993  0.75037701    -0.02300
O450        O  0.77665036  0.02385590  0.45544059    -0.79900
O451        O  0.71033755  0.36697584  0.44786736    -0.79900
O452        O  0.81082394  0.42875139  0.53319638    -0.80000
O453        O  0.70581441  0.03080550  0.39729246    -0.79900
O454        O  0.77619727  0.42790024  0.45373918    -0.80000
O455        O  0.71309259  0.08798727  0.45849227    -0.79900
O456        O  0.70526116  0.42612269  0.39347936    -0.79900
O457        O  0.81316073  0.02159677  0.53367379    -0.80000
C458        C  0.81033281  0.03445283  0.48337855     1.09800
C459        C  0.70905066  0.38279136  0.39910292     1.09700
C460        C  0.80832292  0.41521880  0.48210338     1.09800
C461        C  0.70875042  0.07398113  0.40813993     1.09700
O462        O  0.66732695  0.05169364  0.54492590    -0.79900
O463        O  0.74346300  0.38114421  0.55262204    -0.80000
O464        O  0.74690098  0.02659999  0.62561055    -0.79900
O465        O  0.62836704  0.43462282  0.46978743    -0.79900
O466        O  0.66403398  0.40551941  0.53693312    -0.80000
O467        O  0.74963681  0.07331173  0.55679569    -0.79900
O468        O  0.63051871  0.02534771  0.47464671    -0.79900
O469        O  0.74446025  0.43111396  0.62293070    -0.80000
Co470      Co  0.71995050  0.03599688  0.49810211     1.51500
Co471      Co  0.71806195  0.41867949  0.49323921     1.51700
Co472      Co  0.77452471  0.47711649  0.57524206     1.51600
Co473      Co  0.67507135  0.47888127  0.44450418     1.51500
O474        O  0.71769799  0.47752752  0.52364160    -1.41900
C475        C  0.63226903  0.05068784  0.51811472     1.09700
C476        C  0.74166457  0.39056238  0.60521374     1.09800
C477        C  0.74798742  0.06663192  0.60907814     1.09700
C478        C  0.62893829  0.40910264  0.51086643     1.09700
N479        N  0.96170817  0.29356803  0.48168749    -0.36400
N480        N  0.89746507  0.22404367  0.45418866    -0.57000
N481        N  0.96445940  0.16027864  0.48714733    -0.36400
N482        N  0.52788062  0.22992627  0.51318254    -0.57000
C483        C  0.93065246  0.31582887  0.45317137     0.27200
C484        C  0.49884490  0.31924838  0.48241701     0.27200
C485        C  0.93444932  0.13373089  0.46067853     0.27200
C486        C  0.50291538  0.13655011  0.48934127     0.27200
C487        C  0.86988561  0.26001421  0.45658411     0.35800
C488        C  0.87143406  0.18739921  0.45905111     0.35800
C489        C  0.54909829  0.26754247  0.53037338     0.35800
C490        C  0.55093083  0.19513872  0.53275975     0.35800
C491        C  0.94839773  0.35570879  0.43466484    -0.21700
C492        C  0.99156479  0.35784434  0.45302531    -0.21700
C493        C  0.95412269  0.09295374  0.44518649    -0.21700
C494        C  0.99743288  0.09476934  0.46306090    -0.21700
C495        C  0.82567507  0.24616952  0.46162065    -0.22700
C496        C  0.82664956  0.19995930  0.46305206    -0.22700
C497        C  0.58634759  0.25671509  0.56101558    -0.22700
C498        C  0.58754098  0.21063530  0.56247726    -0.22700
C499        C  0.88503898  0.30458496  0.45209536    -0.18100
C500        C  0.53739396  0.31067179  0.51334018    -0.18100
C501        C  0.54125522  0.14998315  0.51893733    -0.18100
C502        C  0.88842582  0.14314755  0.45748983    -0.18100
H503        H  0.93134791  0.38138306  0.41224429     0.14800
H504        H  0.51442644  0.38540319  0.44702362     0.14800
H505        H  0.93843163  0.06437912  0.42467668     0.14800
H506        H  0.52166439  0.06781990  0.45865576     0.14800
H507        H  0.79598482  0.26706097  0.46393644     0.13100
H508        H  0.79785838  0.17819563  0.46663181     0.13100
H509        H  0.61070876  0.27947983  0.57895356     0.13100
H510        H  0.61298595  0.19085032  0.58180455     0.13100
H511        H  0.95540312  0.26629886  0.50683107     0.26400
H512        H  0.95697022  0.18990935  0.50985291     0.26400
C513        C  0.72063187  0.22274901  0.25056218    -0.02300
N514        N  0.72137855  0.02524740  0.99464632    -0.36400
N515        N  0.65772395  0.45688139  0.02260824    -0.57000
N516        N  0.72977534  0.39506732  0.04954529    -0.36400
N517        N  0.79353807  0.46393839  0.01848393    -0.57000
C518        C  0.68365337  0.04392800  0.97531366     0.27200
C519        C  0.75677252  0.04823624  0.97403547     0.27200
C520        C  0.69461220  0.36683373  0.04398354     0.27200
C521        C  0.76795711  0.37067773  0.04200166     0.27200
C522        C  0.62916819  0.99158854  0.01838331     0.35800
C523        C  0.63401467  0.42409427  0.04692496     0.35800
C524        C  0.81747093  0.00179373  0.01278371     0.35800
C525        C  0.82164513  0.43385407  0.03988972     0.35400
C526        C  0.69518316  0.07987250  0.94245786    -0.21700
C527        C  0.74141957  0.08264550  0.94173914    -0.21700
C528        C  0.71060498  0.32357494  0.03440728    -0.21700
C529        C  0.75694115  0.32602727  0.03303475    -0.21700
C530        C  0.58720867  0.48096225  0.04055609    -0.22700
C531        C  0.59028216  0.43819328  0.05869631    -0.22700
C532        C  0.86089475  0.49567757  0.03078503    -0.22700
C533        C  0.86352762  0.45265790  0.04787557    -0.22700
C534        C  0.63936579  0.03106968  0.99019889    -0.18100
C535        C  0.80205176  0.04055264  0.98721308    -0.18100
C536        C  0.81210543  0.38812757  0.04418022    -0.18100
C537        C  0.64875933  0.37955032  0.04861102    -0.18100
H538        H  0.67265346  0.10219757  0.92195149     0.14800
H539        H  0.76138980  0.10746319  0.92048270     0.14800
H540        H  0.69097974  0.29347927  0.02852448     0.14800
H541        H  0.77981754  0.29823151  0.02538629     0.14800
H542        H  0.55717004  0.00136384  0.04204382     0.13100
H543        H  0.56294342  0.41897756  0.07637494     0.13100
H544        H  0.88828610  0.01930237  0.03036692     0.13100
H545        H  0.89330737  0.43664018  0.06284483     0.13100
H546        H  0.72279931  0.00172345  0.02573935     0.26400
H547        H  0.72777275  0.42872339  0.06197515     0.26400
O548        O  0.52843991  0.26802578  0.04371402    -0.79900
O549        O  0.86470680  0.22255995  0.05312946    -0.79900
O550        O  0.93748944  0.31251392  0.96686439    -0.80000
O551        O  0.52751776  0.20062920  0.10410712    -0.79900
O552        O  0.93416754  0.27904743  0.04652260    -0.80000
O553        O  0.58476498  0.19745163  0.04241943    -0.79900
O554        O  0.92271087  0.20905520  0.10764898    -0.79900
O555        O  0.53031095  0.30393485  0.96541602    -0.80000
C556        C  0.54260063  0.30005299  0.01581085     1.09800
C557        C  0.88004139  0.21795451  0.10181996     1.09700
C558        C  0.92388255  0.31169902  0.01794944     1.09800
C559        C  0.57093388  0.19903886  0.09321301     1.09700
O560        O  0.54254693  0.15481532  0.95676369    -0.79900
O561        O  0.88248394  0.25232124  0.94824671    -0.80000
O562        O  0.52681406  0.23793322  0.87441935    -0.79900
O563        O  0.92401570  0.13169937  0.03098658    -0.79900
O564        O  0.89621547  0.17047709  0.96546496    -0.80000
O565        O  0.57416999  0.23344795  0.94296043    -0.79900
O566        O  0.51475961  0.12412389  0.03016486    -0.79900
O567        O  0.93163197  0.24488160  0.87786720    -0.80000
Co568      Co  0.53363012  0.20968529  0.00230849     1.51500
Co569      Co  0.91686627  0.22271324  0.00784189     1.51700
Co570      Co  0.98116541  0.27055246  0.92486058     1.51600
Co571      Co  0.97257457  0.17377543  0.05730050     1.51500
O572        O  0.97523725  0.21450192  0.97691243    -1.41900
C573        C  0.53937481  0.12148048  0.98616073     1.09700
C574        C  0.89106475  0.24809435  0.89567889     1.09800
C575        C  0.56678451  0.23350931  0.89075652     1.09700
C576        C  0.89770262  0.13495823  0.99058608     1.09700
C577        C  0.86539639  0.10109637  0.97835610    -0.13100
C578        C  0.83509983  0.07467352  0.97681659    -0.14600
C579        C  0.57996571  0.32546218  0.03601768    -0.13100
C580        C  0.61359105  0.34634261  0.04580088    -0.14600
C581        C  0.85083054  0.35857771  0.04343114    -0.13100
C582        C  0.88603882  0.33885742  0.03613820    -0.14600
C583        C  0.60217953  0.06027893  0.97843430    -0.13100
C584        C  0.57058549  0.08537665  0.97691805    -0.14600
C585        C  0.84289599  0.19495114  0.19339475    -0.13100
C586        C  0.84748316  0.22538059  0.14991135     0.09000
C587        C  0.81376323  0.25769557  0.14473555    -0.13100
C588        C  0.77451838  0.25703837  0.17817810    -0.13100
C589        C  0.76698159  0.22358348  0.21791549     0.09000
C590        C  0.80346290  0.19446736  0.22761357    -0.13100
H591        H  0.86847493  0.16982795  0.19870962     0.13000
H592        H  0.81672909  0.28216184  0.11229140     0.13000
H593        H  0.74868600  0.28152819  0.17094796     0.13000
H594        H  0.80178544  0.17055258  0.26067222     0.13000
C595        C  0.63542177  0.21793648  0.23058849    -0.13100
C596        C  0.68064709  0.21600190  0.20994631     0.09000
C597        C  0.68758205  0.20375054  0.15245456    -0.13100
C598        C  0.65175070  0.19774968  0.11663519    -0.13100
C599        C  0.60684031  0.20288911  0.13613895     0.09000
C600        C  0.59898052  0.21223077  0.19405895    -0.13100
H601        H  0.62835915  0.22499936  0.27511135     0.13000
H602        H  0.72070518  0.19774045  0.13423923     0.13000
H603        H  0.65978343  0.18892792  0.07275134     0.13000
H604        H  0.56500963  0.21557814  0.21093488     0.13000
C605        C  0.75096166  0.31810123  0.35645487    -0.13100
C606        C  0.71689575  0.34999748  0.35124850     0.09000
C607        C  0.68563598  0.34299459  0.30863492    -0.13100
C608        C  0.68689977  0.30335277  0.27448361    -0.13100
C609        C  0.71869708  0.26905398  0.28344035     0.09000
C610        C  0.75213741  0.27876720  0.32303742    -0.13100
H611        H  0.77546351  0.32246133  0.38901165     0.13000
H612        H  0.65883214  0.36690213  0.30377796     0.13000
H613        H  0.66234889  0.29981094  0.24199841     0.13000
H614        H  0.77821800  0.25451459  0.33014781     0.13000
C615        C  0.72209010  0.13781078  0.27057229    -0.13100
C616        C  0.71675542  0.18281489  0.29111033     0.09000
C617        C  0.70382634  0.18932399  0.34842610    -0.13100
C618        C  0.70056454  0.15359236  0.38429862    -0.13100
C619        C  0.70930758  0.10926799  0.36497146     0.09000
C620        C  0.71914020  0.10151725  0.30716805    -0.13100
H621        H  0.72973595  0.13090995  0.22614649     0.13000
H622        H  0.69526062  0.22197829  0.36642688     0.13000
H623        H  0.69098813  0.16108853  0.42809083     0.13000
H624        H  0.72522377  0.06783491  0.29052784     0.13000
C625        C  0.83424994  0.37699167  0.46224375    -0.13100
C626        C  0.85415330  0.34210975  0.45341058    -0.14600
C627        C  0.59845755  0.08382355  0.53039239    -0.13100
C628        C  0.57324872  0.11532628  0.53052092    -0.14600
C629        C  0.59319137  0.37868270  0.52170964    -0.13100
C630        C  0.56776370  0.34755751  0.52263782    -0.14600
C631        C  0.83813848  0.07062242  0.46490632    -0.13100
C632        C  0.85867613  0.10481886  0.45758970    -0.14600
C633        C  0.77311716  0.25951524  0.84248655    -0.13100
C634        C  0.77523351  0.23626053  0.78941148     0.09000
C635        C  0.81820542  0.22112231  0.76974140    -0.13100
C636        C  0.85613215  0.22586374  0.80317002    -0.13100
C637        C  0.85267053  0.24656081  0.85704431     0.09000
C638        C  0.81084742  0.26387354  0.87591152    -0.13100
H639        H  0.74237210  0.27546137  0.85791625     0.13000
H640        H  0.82307688  0.20555138  0.72822839     0.13000
H641        H  0.88800863  0.21261251  0.78720973     0.13000
H642        H  0.80725600  0.28119164  0.91674435     0.13000
C643        C  0.64758064  0.25102826  0.76630786    -0.13100
C644        C  0.68817109  0.23231140  0.78529783     0.09000
C645        C  0.68527629  0.21024169  0.83717083    -0.13100
C646        C  0.64554457  0.20947223  0.86959056    -0.13100
C647        C  0.60629633  0.22978761  0.85131043     0.09000
C648        C  0.60742741  0.24970615  0.79872186    -0.13100
H649        H  0.64585021  0.26749764  0.72684082     0.13000
H650        H  0.71423631  0.19388157  0.85377142     0.13000
H651        H  0.64577272  0.19327196  0.90981844     0.13000
H652        H  0.57770240  0.26572859  0.78353044     0.13000
C653        C  0.71157901  0.27724333  0.66182873    -0.13100
C654        C  0.73452051  0.27634856  0.71336354     0.09000
C655        C  0.75656202  0.31653453  0.73043786    -0.13100
C656        C  0.75747772  0.35415517  0.69671255    -0.13100
C657        C  0.73689440  0.35311415  0.64437897     0.09000
C658        C  0.71356218  0.31440648  0.62756088    -0.13100
H659        H  0.69246591  0.24856864  0.64730971     0.13000
H660        H  0.77366462  0.31982818  0.76980730     0.13000
H661        H  0.77557979  0.38362870  0.71083909     0.13000
H662        H  0.69668143  0.31284913  0.58759342     0.13000
C663        C  0.75744274  0.18775847  0.65880284    -0.13100
C664        C  0.73814271  0.18874674  0.71400507     0.09000
C665        C  0.72779128  0.14647669  0.73680583    -0.13100
C666        C  0.73198986  0.10636454  0.70415330    -0.13100
C667        C  0.74751919  0.10695016  0.64786831     0.09000
C668        C  0.76104472  0.14810810  0.62623407    -0.13100
H669        H  0.77114752  0.21749467  0.64047968     0.13000
H670        H  0.71606248  0.14356712  0.77984031     0.13000
H671        H  0.72214541  0.07513682  0.72257813     0.13000
H672        H  0.77495871  0.14980989  0.58360666     0.13000
C673        C  0.73375736  0.73358003  0.75037714    -0.02300
O674        O  0.77665027  0.52385596  0.45544060    -0.79900
O675        O  0.71033753  0.86697593  0.44786731    -0.79900
O676        O  0.81082411  0.92875124  0.53319635    -0.80000
O677        O  0.70581434  0.53080547  0.39729256    -0.79900
O678        O  0.77619729  0.92790022  0.45373928    -0.80000
O679        O  0.71309254  0.58798738  0.45849221    -0.79900
O680        O  0.70526125  0.92612282  0.39347930    -0.79900
O681        O  0.81316069  0.52159673  0.53367384    -0.80000
C682        C  0.81033272  0.53445284  0.48337861     1.09800
C683        C  0.70905067  0.88279152  0.39910290     1.09700
C684        C  0.80832302  0.91521876  0.48210335     1.09800
C685        C  0.70875048  0.57398108  0.40813990     1.09700
O686        O  0.66732691  0.55169369  0.54492584    -0.79900
O687        O  0.74346294  0.88114424  0.55262189    -0.80000
O688        O  0.74690081  0.52660016  0.62561053    -0.79900
O689        O  0.62836715  0.93462285  0.46978744    -0.79900
O690        O  0.66403389  0.90551947  0.53693323    -0.80000
O691        O  0.74963679  0.57331189  0.55679559    -0.79900
O692        O  0.63051856  0.52534775  0.47464680    -0.79900
O693        O  0.74446046  0.93111389  0.62293065    -0.80000
Co694      Co  0.71995045  0.53599692  0.49810206     1.51500
Co695      Co  0.71806193  0.91867956  0.49323926     1.51700
Co696      Co  0.77452489  0.97711644  0.57524203     1.51600
Co697      Co  0.67507150  0.97888130  0.44450418     1.51500
O698        O  0.71769817  0.97752759  0.52364167    -1.41900
C699        C  0.63226896  0.55068795  0.51811471     1.09700
C700        C  0.74166481  0.89056234  0.60521360     1.09800
C701        C  0.74798734  0.56663209  0.60907805     1.09700
C702        C  0.62893826  0.90910272  0.51086648     1.09700
N703        N  0.96170798  0.79356785  0.48168758    -0.36400
N704        N  0.89746525  0.72404361  0.45418849    -0.57000
N705        N  0.96445914  0.66027940  0.48714816    -0.36400
N706        N  0.52788081  0.72992626  0.51318262    -0.57000
C707        C  0.93065235  0.81582892  0.45317131     0.27200
C708        C  0.49884482  0.81924827  0.48241697     0.27200
C709        C  0.93444931  0.63373103  0.46067877     0.27200
C710        C  0.50291543  0.63655001  0.48934141     0.27200
C711        C  0.86988583  0.76001407  0.45658395     0.35800
C712        C  0.87143413  0.68739913  0.45905109     0.35800
C713        C  0.54909856  0.76754244  0.53037329     0.35800
C714        C  0.55093106  0.69513863  0.53275993     0.35800
C715        C  0.94839762  0.85570880  0.43466489    -0.21700
C716        C  0.99156470  0.85784435  0.45302530    -0.21700
C717        C  0.95412263  0.59295416  0.44518664    -0.21700
C718        C  0.99743273  0.59476974  0.46306097    -0.21700
C719        C  0.82567546  0.74616920  0.46162059    -0.22700
C720        C  0.82664963  0.69995906  0.46305210    -0.22700
C721        C  0.58634786  0.75671485  0.56101569    -0.22700
C722        C  0.58754145  0.71063494  0.56247751    -0.22700
C723        C  0.88503895  0.80458490  0.45209536    -0.18100
C724        C  0.53739399  0.81067182  0.51334024    -0.18100
C725        C  0.54125522  0.64998327  0.51893736    -0.18100
C726        C  0.88842592  0.64314765  0.45748987    -0.18100
H727        H  0.93134786  0.88138304  0.41224423     0.14800
H728        H  0.51442581  0.88540314  0.44702316     0.14800
H729        H  0.93843161  0.56437951  0.42467663     0.14800
H730        H  0.52166434  0.56781961  0.45865605     0.14800
H731        H  0.79598525  0.76706071  0.46393634     0.13100
H732        H  0.79785820  0.67819563  0.46663189     0.13100
H733        H  0.61070894  0.77947975  0.57895340     0.13100
H734        H  0.61298616  0.69084987  0.58180526     0.13100
H735        H  0.95540308  0.76629918  0.50683014     0.26400
H736        H  0.95697057  0.68990781  0.50985149     0.26400
C737        C  0.72063196  0.72274901  0.25056230    -0.02300
N738        N  0.72137851  0.52524772  0.99464611    -0.36400
N739        N  0.65772380  0.95688130  0.02260836    -0.57000
N740        N  0.72977536  0.89506653  0.04954494    -0.36400
N741        N  0.79353804  0.96393823  0.01848399    -0.57000
C742        C  0.68365331  0.54392843  0.97531335     0.27200
C743        C  0.75677243  0.54823662  0.97403524     0.27200
C744        C  0.69461223  0.86683375  0.04398348     0.27200
C745        C  0.76795713  0.87067752  0.04200155     0.27200
C746        C  0.62916835  0.49158868  0.01838319     0.35800
C747        C  0.63401452  0.92409412  0.04692505     0.35800
C748        C  0.81747095  0.50179393  0.01278370     0.35800
C749        C  0.82164509  0.93385381  0.03988977     0.35400
C750        C  0.69518281  0.57987318  0.94245735    -0.21700
C751        C  0.74141943  0.58264611  0.94173876    -0.21700
C752        C  0.71060516  0.82357494  0.03440731    -0.21700
C753        C  0.75694134  0.82602692  0.03303467    -0.21700
C754        C  0.58720855  0.98096197  0.04055621    -0.22700
C755        C  0.59028188  0.93819297  0.05869641    -0.22700
C756        C  0.86089462  0.99567723  0.03078512    -0.22700
C757        C  0.86352762  0.95265750  0.04787576    -0.22700
C758        C  0.63936590  0.53106984  0.99019881    -0.18100
C759        C  0.80205166  0.54055278  0.98721300    -0.18100
C760        C  0.81210547  0.88812720  0.04418020    -0.18100
C761        C  0.64875927  0.87955006  0.04861105    -0.18100
H762        H  0.67265278  0.60219811  0.92195127     0.14800
H763        H  0.76138991  0.60746375  0.92048257     0.14800
H764        H  0.69097968  0.79347953  0.02852443     0.14800
H765        H  0.77981761  0.79823112  0.02538624     0.14800
H766        H  0.55717017  0.50136419  0.04204391     0.13100
H767        H  0.56294300  0.91897738  0.07637483     0.13100
H768        H  0.88828643  0.51930248  0.03036695     0.13100
H769        H  0.89330734  0.93663964  0.06284489     0.13100
H770        H  0.72279934  0.50172376  0.02573874     0.26400
H771        H  0.72777249  0.92872523  0.06197593     0.26400
O772        O  0.52843982  0.76802576  0.04371397    -0.79900
O773        O  0.86470687  0.72255983  0.05312948    -0.79900
O774        O  0.93748951  0.81251387  0.96686443    -0.80000
O775        O  0.52751775  0.70062919  0.10410708    -0.79900
O776        O  0.93416753  0.77904739  0.04652264    -0.80000
O777        O  0.58476492  0.69745167  0.04241935    -0.79900
O778        O  0.92271094  0.70905521  0.10764901    -0.79900
O779        O  0.53031090  0.80393475  0.96541602    -0.80000
C780        C  0.54260060  0.80005292  0.01581083     1.09800
C781        C  0.88004145  0.71795441  0.10182000     1.09700
C782        C  0.92388255  0.81169893  0.01794944     1.09800
C783        C  0.57093388  0.69903887  0.09321293     1.09700
O784        O  0.54254689  0.65481540  0.95676375    -0.79900
O785        O  0.88248400  0.75232112  0.94824672    -0.80000
O786        O  0.52681411  0.73793324  0.87441925    -0.79900
O787        O  0.92401570  0.63169937  0.03098668    -0.79900
O788        O  0.89621562  0.67047700  0.96546491    -0.80000
O789        O  0.57416992  0.73344796  0.94296040    -0.79900
O790        O  0.51475961  0.62412402  0.03016492    -0.79900
O791        O  0.93163184  0.74488162  0.87786708    -0.80000
Co792      Co  0.53363002  0.70968530  0.00230845     1.51500
Co793      Co  0.91686638  0.72271314  0.00784187     1.51700
Co794      Co  0.98116543  0.77055238  0.92486056     1.51600
Co795      Co  0.97257458  0.67377544  0.05730055     1.51500
O796        O  0.97523737  0.71450174  0.97691234    -1.41900
C797        C  0.53937475  0.62148055  0.98616078     1.09700
C798        C  0.89106466  0.74809428  0.89567887     1.09800
C799        C  0.56678451  0.73350923  0.89075645     1.09700
C800        C  0.89770268  0.63495818  0.99058610     1.09700
C801        C  0.86539638  0.60109633  0.97835612    -0.13100
C802        C  0.83509969  0.57467364  0.97681651    -0.14600
C803        C  0.57996572  0.82546207  0.03601768    -0.13100
C804        C  0.61359108  0.84634245  0.04580089    -0.14600
C805        C  0.85083066  0.85857763  0.04343113    -0.13100
C806        C  0.88603883  0.83885722  0.03613815    -0.14600
C807        C  0.60217954  0.56027898  0.97843424    -0.13100
C808        C  0.57058539  0.58537659  0.97691820    -0.14600
C809        C  0.84289631  0.69495067  0.19339491    -0.13100
C810        C  0.84748321  0.72538005  0.14991152     0.09000
C811        C  0.81376333  0.75769513  0.14473605    -0.13100
C812        C  0.77451846  0.75703815  0.17817838    -0.13100
C813        C  0.76698170  0.72358331  0.21791563     0.09000
C814        C  0.80346311  0.69446706  0.22761370    -0.13100
H815        H  0.86847535  0.66982765  0.19870972     0.13000
H816        H  0.81672910  0.78216105  0.11229145     0.13000
H817        H  0.74868616  0.78152812  0.17094799     0.13000
H818        H  0.80178545  0.67055224  0.26067219     0.13000
C819        C  0.63542213  0.71793653  0.23058830    -0.13100
C820        C  0.68064735  0.71600177  0.20994630     0.09000
C821        C  0.68758225  0.70375045  0.15245450    -0.13100
C822        C  0.65175082  0.69774952  0.11663509    -0.13100
C823        C  0.60684053  0.70288916  0.13613872     0.09000
C824        C  0.59898102  0.71223080  0.19405865    -0.13100
H825        H  0.62835927  0.72499966  0.27511107     0.13000
H826        H  0.72070533  0.69774019  0.13423928     0.13000
H827        H  0.65978335  0.68892710  0.07275141     0.13000
H828        H  0.56501016  0.71557884  0.21093451     0.13000
C829        C  0.75096110  0.81810157  0.35645466    -0.13100
C830        C  0.71689515  0.84999788  0.35124839     0.09000
C831        C  0.68563512  0.84299531  0.30863470    -0.13100
C832        C  0.68689927  0.80335318  0.27448341    -0.13100
C833        C  0.71869669  0.76905437  0.28344018     0.09000
C834        C  0.75213666  0.77876782  0.32303720    -0.13100
H835        H  0.77546314  0.82246084  0.38901155     0.13000
H836        H  0.65883138  0.86690289  0.30377761     0.13000
H837        H  0.66234876  0.79981084  0.24199796     0.13000
H838        H  0.77821732  0.75451523  0.33014767     0.13000
C839        C  0.72209006  0.63781052  0.27057238    -0.13100
C840        C  0.71675547  0.68281477  0.29111053     0.09000
C841        C  0.70382637  0.68932384  0.34842610    -0.13100
C842        C  0.70056454  0.65359210  0.38429839    -0.13100
C843        C  0.70930768  0.60926756  0.36497115     0.09000
C844        C  0.71914037  0.60151651  0.30716773    -0.13100
H845        H  0.72973536  0.63091041  0.22614637     0.13000
H846        H  0.69526132  0.72197829  0.36642709     0.13000
H847        H  0.69098796  0.66108829  0.42809058     0.13000
H848        H  0.72522463  0.56783423  0.29052757     0.13000
C849        C  0.83424987  0.87699157  0.46224369    -0.13100
C850        C  0.85415315  0.84210964  0.45341043    -0.14600
C851        C  0.59845740  0.58382353  0.53039239    -0.13100
C852        C  0.57324864  0.61532626  0.53052085    -0.14600
C853        C  0.59319136  0.87868284  0.52170970    -0.13100
C854        C  0.56776374  0.84755761  0.52263771    -0.14600
C855        C  0.83813850  0.57062231  0.46490628    -0.13100
C856        C  0.85867636  0.60481865  0.45758967    -0.14600
C857        C  0.77311687  0.75951542  0.84248674    -0.13100
C858        C  0.77523325  0.73626076  0.78941168     0.09000
C859        C  0.81820500  0.72112256  0.76974165    -0.13100
C860        C  0.85613158  0.72586414  0.80317021    -0.13100
C861        C  0.85267026  0.74656096  0.85704437     0.09000
C862        C  0.81084729  0.76387359  0.87591151    -0.13100
H863        H  0.74237203  0.77546199  0.85791630     0.13000
H864        H  0.82307661  0.70555166  0.72822861     0.13000
H865        H  0.88800810  0.71261331  0.78720954     0.13000
H866        H  0.80725603  0.78119113  0.91674464     0.13000
C867        C  0.64758067  0.75102816  0.76630774    -0.13100
C868        C  0.68817108  0.73231138  0.78529788     0.09000
C869        C  0.68527618  0.71024160  0.83717094    -0.13100
C870        C  0.64554447  0.70947230  0.86959070    -0.13100
C871        C  0.60629633  0.72978757  0.85131040     0.09000
C872        C  0.60742747  0.74970612  0.79872179    -0.13100
H873        H  0.64585022  0.76749734  0.72684054     0.13000
H874        H  0.71423613  0.69388148  0.85377168     0.13000
H875        H  0.64577234  0.69327184  0.90981847     0.13000
H876        H  0.57770241  0.76572851  0.78353036     0.13000
C877        C  0.71157915  0.77724341  0.66182884    -0.13100
C878        C  0.73452061  0.77634871  0.71336380     0.09000
C879        C  0.75656229  0.81653462  0.73043808    -0.13100
C880        C  0.75747792  0.85415522  0.69671258    -0.13100
C881        C  0.73689443  0.85311413  0.64437882     0.09000
C882        C  0.71356212  0.81440637  0.62756069    -0.13100
H883        H  0.69246601  0.74856871  0.64731011     0.13000
H884        H  0.77366514  0.81982812  0.76980734     0.13000
H885        H  0.77558019  0.88362866  0.71083885     0.13000
H886        H  0.69668090  0.81284876  0.58759354     0.13000
C887        C  0.75744291  0.68775874  0.65880275    -0.13100
C888        C  0.73814276  0.68874697  0.71400506     0.09000
C889        C  0.72779142  0.64647696  0.73680569    -0.13100
C890        C  0.73199009  0.60636511  0.70415287    -0.13100
C891        C  0.74751932  0.60695050  0.64786803     0.09000
C892        C  0.76104475  0.64810830  0.62623385    -0.13100
H893        H  0.77114813  0.71749487  0.64047991     0.13000
H894        H  0.71606230  0.64356686  0.77984005     0.13000
H895        H  0.72214610  0.57513730  0.72257783     0.13000
H896        H  0.77495840  0.64980990  0.58360630     0.13000
loop_ 
_geom_bond_atom_site_label_1 
_geom_bond_atom_site_label_2 
_geom_bond_distance 
_geom_bond_site_symmetry_2 
_ccdc_geom_bond_type 
C1          C186   1.565       .  S
C1          C196   1.574       .  S
C1          C206   1.576       .  S
C1          C216   1.572       .  S
O2           C10   1.253       .  A
O2          Co22   1.973       .  S
O3           C11   1.264       .  A
O3          Co23   1.871       .  S
O4           C12   1.266       .  A
O4          Co24   2.023       .  S
O5           C13   1.312       .  A
O5         Co249   2.140   1_545  S
O6           C12   1.251       .  A
O6          Co23   1.973       .  S
O7           C13   1.260       .  A
O7          Co22   1.858       .  S
O8           C11   1.313       .  A
O8          Co25   2.137       .  S
O9           C10   1.269       .  A
O9         Co248   2.027   1_545  S
C10         C183   1.438       .  S
C11         C158   1.486       .  S
C12         C177   1.438       .  S
C13         C171   1.495       .  S
O14          C27   1.238       .  A
O14         Co22   1.944       .  S
O15          C28   1.267       .  A
O15         Co23   1.994       .  S
O16          C29   1.274       .  A
O16        Co248   2.028   1_545  S
O17          C30   1.258       .  A
O17         Co25   2.018       .  S
O18          C30   1.236       .  A
O18         Co23   1.940       .  S
O19          C29   1.260       .  A
O19         Co22   1.981       .  S
O20          C27   1.259       .  A
O20        Co249   2.020   1_545  S
O21          C28   1.274       .  A
O21         Co24   2.009       .  S
Co22        O250   1.872   1_545  S
Co23         O26   1.879       .  S
Co24        O233   2.027       .  S
Co24        O240   2.028       .  S
Co24         O26   2.117       .  S
Co25        O229   2.140       .  S
Co25        O244   2.020       .  S
Co25         O26   2.294       .  S
O26        Co246   1.872       .  S
C27         C179   1.430       .  S
C28         C209   1.484       .  S
C29         C219   1.491       .  S
C30         C181   1.428       .  S
N31          H63   1.041       .  S
N31          C35   1.349       .  A
N31         C484   1.350       .  A
N32          C39   1.352       .  A
N32          C40   1.352       .  A
N33          H64   1.041       .  S
N33          C37   1.351       .  A
N33         C486   1.351       .  A
N34          C41   1.349       .  A
N34          C42   1.349       .  A
C35          C43   1.387       .  A
C35          C51   1.403       .  A
C36         N479   1.350       .  A
C36          C52   1.408   1_655  A
C36         C492   1.389       .  A
C37          C45   1.386       .  A
C37          C54   1.406       .  A
C38         N481   1.351   1_455  A
C38          C53   1.410       .  A
C38         C494   1.389   1_455  A
C39          C51   1.416       .  A
C39          C47   1.387       .  A
C40          C54   1.416       .  A
C40          C48   1.387       .  A
C41          C49   1.387       .  A
C41          C52   1.412       .  A
C42          C50   1.387       .  A
C42          C53   1.412       .  A
C43          C44   1.371       .  A
C43          H55   1.083       .  S
C44         C484   1.389       .  A
C44         H504   1.082       .  S
C45          C46   1.371       .  A
C45          H57   1.082       .  S
C46         C486   1.389       .  A
C46         H506   1.082       .  S
C47          C48   1.385       .  A
C47          H59   1.082       .  S
C48          H60   1.083       .  S
C49          C50   1.381       .  A
C49          H61   1.083       .  S
C50          H62   1.083       .  S
C51         C178   1.450       .  S
C52         C182   1.445       .  S
C53         C180   1.446       .  S
C54         C184   1.452       .  S
H56         C492   1.082   1_455  S
H58         C494   1.082   1_455  S
C65         C141   1.567       .  S
C65         C148   1.562       .  S
C65         C161   1.566       .  S
C65         C168   1.561       .  S
N66          H98   1.038   1_556  S
N66          C71   1.351       .  A
N66          C70   1.353       .  A
N67          C75   1.347       .  A
N67         C298   1.350       .  A
N68          H99   1.041       .  S
N68          C73   1.356       .  A
N68          C72   1.355       .  A
N69          C77   1.350       .  A
N69         C300   1.350       .  A
C70          C78   1.388       .  A
C70          C86   1.416       .  A
C71          C87   1.415       .  A
C71          C79   1.388       .  A
C72          C80   1.388       .  A
C72          C89   1.420       .  A
C73          C88   1.420       .  A
C73          C81   1.388       .  A
C74         N291   1.350       .  A
C74          C86   1.407   1_564  A
C74         C306   1.386       .  A
C75          C89   1.405       .  A
C75          C83   1.388       .  A
C76         N293   1.350   1_545  A
C76          C87   1.409   1_554  A
C76         C308   1.389   1_545  A
C77          C85   1.387       .  A
C77          C88   1.405       .  A
C78          C79   1.382       .  A
C78          H90   1.083       .  S
C79          H91   1.083       .  S
C80          C81   1.384       .  A
C80          H92   1.083       .  S
C81          H93   1.082       .  S
C82          C83   1.368       .  A
C82         C298   1.386       .  A
C82         H318   1.082       .  S
C83          H95   1.083       .  S
C84          C85   1.366       .  A
C84         C300   1.389       .  A
C84         H320   1.082       .  S
C85          H97   1.082       .  S
C86         C135   1.450       .  S
C87         C130   1.444       .  S
C88         C133   1.453       .  S
C89         C132   1.448       .  S
H94         C306   1.082   1_545  S
H96         C308   1.082   1_545  S
O100        C108   1.251       .  A
O100       Co120   1.976       .  S
O101        C109   1.263       .  A
O101       Co121   1.866       .  S
O102        C110   1.266   1_556  A
O102       Co122   2.025       .  S
O103        C111   1.314       .  A
O103       Co571   2.146   1_455  S
O104        C110   1.250       .  A
O104       Co121   1.967       .  S
O105        C111   1.260       .  A
O105       Co120   1.861       .  S
O106        C109   1.312       .  A
O106       Co123   2.135       .  S
O107        C108   1.267   1_556  A
O107       Co570   2.022   1_455  S
C108        C131   1.435       .  S
C109        C138   1.487       .  S
C110        C134   1.437       .  S
C111        C151   1.498       .  S
O112        C125   1.238       .  A
O112       Co120   1.947   1_556  S
O113        C126   1.266       .  A
O113       Co121   1.997   1_556  S
O114        C127   1.272       .  A
O114       Co570   2.014   1_455  S
O115        C128   1.260   1_554  A
O115       Co123   2.019       .  S
O116        C128   1.237       .  A
O116       Co121   1.939   1_556  S
O117        C127   1.261       .  A
O117       Co120   1.981   1_556  S
O118        C125   1.258   1_554  A
O118       Co571   2.021   1_455  S
O119        C126   1.273       .  A
O119       Co122   2.012       .  S
Co120       O572   1.865   1_454  S
Co121       O124   1.883   1_554  S
Co122       O555   2.022       .  S
Co122       O562   2.014       .  S
Co122       O124   2.121       .  S
Co123       O551   2.146       .  S
Co123       O566   2.021       .  S
Co123       O124   2.295   1_554  S
O124       Co568   1.865   1_556  S
C125        C136   1.432       .  S
C126        C189   1.485       .  S
C127        C199   1.485       .  S
C128        C129   1.428       .  S
C129        C130   1.203       .  T
C131        C132   1.207       .  T
C133        C134   1.209       .  T
C135        C136   1.206       .  T
C137        C138   1.402       .  A
C137        C142   1.411       .  A
C137        H143   1.083       .  S
C138        C139   1.405       .  A
C139        C140   1.396       .  A
C139        H144   1.082       .  S
C140        C141   1.412       .  A
C140        H145   1.083       .  S
C141        C142   1.421       .  A
C142        H146   1.079       .  S
C147        C148   1.423       .  A
C147        C152   1.415       .  A
C147        H153   1.083       .  S
C148        C149   1.407       .  A
C149        C150   1.391       .  A
C149        H154   1.080       .  S
C150        C151   1.412       .  A
C150        H155   1.083       .  S
C151        C152   1.403       .  A
C152        H156   1.082       .  S
C157        C158   1.404       .  A
C157        C162   1.395       .  A
C157        H163   1.081       .  S
C158        C159   1.403       .  A
C159        C160   1.412       .  A
C159        H164   1.083       .  S
C160        C161   1.421       .  A
C160        H165   1.079       .  S
C161        C162   1.411       .  A
C162        H166   1.083       .  S
C167        C168   1.423       .  A
C167        C172   1.414       .  A
C167        H173   1.083       .  S
C168        C169   1.407       .  A
C169        C170   1.391       .  A
C169        H174   1.080       .  S
C170        C171   1.410       .  A
C170        H175   1.084       .  S
C171        C172   1.403       .  A
C172        H176   1.083       .  S
C177        C178   1.209       .  T
C179        C180   1.205       .  T
C181        C182   1.203       .  T
C183        C184   1.209       .  T
C185        C186   1.415       .  A
C185        C190   1.397       .  A
C185        H191   1.082       .  S
C186        C187   1.420       .  A
C187        C188   1.403       .  A
C187        H192   1.079       .  S
C188        C189   1.399       .  A
C188        H193   1.083       .  S
C189        C190   1.406       .  A
C190        H194   1.083       .  S
C195        C196   1.424       .  A
C195        C200   1.406       .  A
C195        H201   1.074       .  S
C196        C197   1.415       .  A
C197        C198   1.395       .  A
C197        H202   1.082       .  S
C198        C199   1.404       .  A
C198        H203   1.084       .  S
C199        C200   1.398       .  A
C200        H204   1.083       .  S
C205        C206   1.416       .  A
C205        C210   1.400       .  A
C205        H211   1.083       .  S
C206        C207   1.424       .  A
C207        C208   1.403       .  A
C207        H212   1.076       .  S
C208        C209   1.397       .  A
C208        H213   1.083       .  S
C209        C210   1.404       .  A
C210        H214   1.084       .  S
C215        C216   1.413       .  A
C215        C220   1.395       .  A
C215        H221   1.080       .  S
C216        C217   1.424       .  A
C217        C218   1.408       .  A
C217        H222   1.075       .  S
C218        C219   1.399       .  A
C218        H223   1.083       .  S
C219        C220   1.406       .  A
C220        H224   1.084       .  S
C225        C410   1.565       .  S
C225        C420   1.574       .  S
C225        C430   1.576       .  S
C225        C440   1.572       .  S
O226        C234   1.253       .  A
O226       Co246   1.973       .  S
O227        C235   1.264       .  A
O227       Co247   1.871       .  S
O228        C236   1.266       .  A
O228       Co248   2.023       .  S
O229        C237   1.312       .  A
O230        C236   1.251       .  A
O230       Co247   1.973       .  S
O231        C237   1.260       .  A
O231       Co246   1.858       .  S
O232        C235   1.313       .  A
O232       Co249   2.137       .  S
O233        C234   1.269       .  A
C234        C407   1.438       .  S
C235        C382   1.486       .  S
C236        C401   1.438       .  S
C237        C395   1.495       .  S
O238        C251   1.238       .  A
O238       Co246   1.944       .  S
O239        C252   1.267       .  A
O239       Co247   1.994       .  S
O240        C253   1.274       .  A
O241        C254   1.258       .  A
O241       Co249   2.018       .  S
O242        C254   1.236       .  A
O242       Co247   1.940       .  S
O243        C253   1.260       .  A
O243       Co246   1.981       .  S
O244        C251   1.259       .  A
O245        C252   1.274       .  A
O245       Co248   2.009       .  S
Co247       O250   1.879       .  S
Co248       O250   2.117       .  S
Co249       O250   2.294       .  S
C251        C403   1.430       .  S
C252        C433   1.484       .  S
C253        C443   1.491       .  S
C254        C405   1.428       .  S
N255        H287   1.041       .  S
N255        C708   1.350       .  A
N255        C259   1.349       .  A
N256        C263   1.352       .  A
N256        C264   1.352       .  A
N257        H288   1.041       .  S
N257        C710   1.351       .  A
N257        C261   1.351       .  A
N258        C265   1.349       .  A
N258        C266   1.349       .  A
C259        C267   1.387       .  A
C259        C275   1.403       .  A
C260        N703   1.350       .  A
C260        C276   1.408   1_655  A
C260        C716   1.389       .  A
C261        C269   1.386       .  A
C261        C278   1.406       .  A
C262        N705   1.351   1_455  A
C262        C277   1.410       .  A
C262        C718   1.389   1_455  A
C263        C275   1.416       .  A
C263        C271   1.387       .  A
C264        C278   1.416       .  A
C264        C272   1.387       .  A
C265        C273   1.387       .  A
C265        C276   1.412       .  A
C266        C274   1.387       .  A
C266        C277   1.412       .  A
C267        C268   1.371       .  A
C267        H279   1.083       .  S
C268        C708   1.389       .  A
C268        H728   1.082       .  S
C269        C270   1.371       .  A
C269        H281   1.082       .  S
C270        C710   1.389       .  A
C270        H730   1.082       .  S
C271        C272   1.385       .  A
C271        H283   1.082       .  S
C272        H284   1.083       .  S
C273        C274   1.381       .  A
C273        H285   1.083       .  S
C274        H286   1.083       .  S
C275        C402   1.450       .  S
C276        C406   1.445       .  S
C277        C404   1.446       .  S
C278        C408   1.452       .  S
H280        C716   1.082   1_455  S
H282        C718   1.082   1_455  S
C289        C365   1.567       .  S
C289        C372   1.562       .  S
C289        C385   1.566       .  S
C289        C392   1.561       .  S
N290        H322   1.038   1_556  S
N290        C295   1.351       .  A
N290        C294   1.353       .  A
N291        C299   1.347       .  A
N292        H323   1.041       .  S
N292        C297   1.356       .  A
N292        C296   1.355       .  A
N293        C301   1.350       .  A
C294        C302   1.388       .  A
C294        C310   1.416       .  A
C295        C311   1.415       .  A
C295        C303   1.388       .  A
C296        C304   1.388       .  A
C296        C313   1.420       .  A
C297        C312   1.420       .  A
C297        C305   1.388       .  A
C298        C310   1.407   1_554  A
C299        C313   1.405       .  A
C299        C307   1.388       .  A
C300        C311   1.409   1_554  A
C301        C309   1.387       .  A
C301        C312   1.405       .  A
C302        C303   1.382       .  A
C302        H314   1.083       .  S
C303        H315   1.083       .  S
C304        C305   1.384       .  A
C304        H316   1.083       .  S
C305        H317   1.082       .  S
C306        C307   1.368       .  A
C307        H319   1.083       .  S
C308        C309   1.366       .  A
C309        H321   1.082       .  S
C310        C359   1.450       .  S
C311        C354   1.444       .  S
C312        C357   1.453       .  S
C313        C356   1.448       .  S
O324        C332   1.251       .  A
O324       Co344   1.976       .  S
O325        C333   1.263       .  A
O325       Co345   1.866       .  S
O326        C334   1.266   1_556  A
O326       Co346   2.025       .  S
O327        C335   1.314       .  A
O327       Co795   2.146   1_455  S
O328        C334   1.250       .  A
O328       Co345   1.967       .  S
O329        C335   1.260       .  A
O329       Co344   1.861       .  S
O330        C333   1.312       .  A
O330       Co347   2.135       .  S
O331        C332   1.267   1_556  A
O331       Co794   2.022   1_455  S
C332        C355   1.435       .  S
C333        C362   1.487       .  S
C334        C358   1.437       .  S
C335        C375   1.498       .  S
O336        C349   1.238       .  A
O336       Co344   1.947   1_556  S
O337        C350   1.266       .  A
O337       Co345   1.997   1_556  S
O338        C351   1.272       .  A
O338       Co794   2.014   1_455  S
O339        C352   1.260   1_554  A
O339       Co347   2.019       .  S
O340        C352   1.237       .  A
O340       Co345   1.939   1_556  S
O341        C351   1.261       .  A
O341       Co344   1.981   1_556  S
O342        C349   1.258   1_554  A
O342       Co795   2.021   1_455  S
O343        C350   1.273       .  A
O343       Co346   2.012       .  S
Co344       O796   1.865   1_454  S
Co345       O348   1.883   1_554  S
Co346       O779   2.022       .  S
Co346       O786   2.014       .  S
Co346       O348   2.121       .  S
Co347       O775   2.146       .  S
Co347       O790   2.021       .  S
Co347       O348   2.295   1_554  S
O348       Co792   1.865   1_556  S
C349        C360   1.432       .  S
C350        C413   1.485       .  S
C351        C423   1.485       .  S
C352        C353   1.428       .  S
C353        C354   1.203       .  T
C355        C356   1.207       .  T
C357        C358   1.209       .  T
C359        C360   1.206       .  T
C361        C362   1.402       .  A
C361        C366   1.411       .  A
C361        H367   1.083       .  S
C362        C363   1.405       .  A
C363        C364   1.396       .  A
C363        H368   1.082       .  S
C364        C365   1.412       .  A
C364        H369   1.083       .  S
C365        C366   1.421       .  A
C366        H370   1.079       .  S
C371        C372   1.423       .  A
C371        C376   1.415       .  A
C371        H377   1.083       .  S
C372        C373   1.407       .  A
C373        C374   1.391       .  A
C373        H378   1.080       .  S
C374        C375   1.412       .  A
C374        H379   1.083       .  S
C375        C376   1.403       .  A
C376        H380   1.082       .  S
C381        C382   1.404       .  A
C381        C386   1.395       .  A
C381        H387   1.081       .  S
C382        C383   1.403       .  A
C383        C384   1.412       .  A
C383        H388   1.083       .  S
C384        C385   1.421       .  A
C384        H389   1.079       .  S
C385        C386   1.411       .  A
C386        H390   1.083       .  S
C391        C392   1.423       .  A
C391        C396   1.414       .  A
C391        H397   1.083       .  S
C392        C393   1.407       .  A
C393        C394   1.391       .  A
C393        H398   1.080       .  S
C394        C395   1.410       .  A
C394        H399   1.084       .  S
C395        C396   1.403       .  A
C396        H400   1.083       .  S
C401        C402   1.209       .  T
C403        C404   1.205       .  T
C405        C406   1.203       .  T
C407        C408   1.209       .  T
C409        C410   1.415       .  A
C409        C414   1.397       .  A
C409        H415   1.082       .  S
C410        C411   1.420       .  A
C411        C412   1.403       .  A
C411        H416   1.079       .  S
C412        C413   1.399       .  A
C412        H417   1.083       .  S
C413        C414   1.406       .  A
C414        H418   1.083       .  S
C419        C420   1.424       .  A
C419        C424   1.406       .  A
C419        H425   1.074       .  S
C420        C421   1.415       .  A
C421        C422   1.395       .  A
C421        H426   1.082       .  S
C422        C423   1.404       .  A
C422        H427   1.084       .  S
C423        C424   1.398       .  A
C424        H428   1.083       .  S
C429        C430   1.416       .  A
C429        C434   1.400       .  A
C429        H435   1.083       .  S
C430        C431   1.424       .  A
C431        C432   1.403       .  A
C431        H436   1.076       .  S
C432        C433   1.397       .  A
C432        H437   1.083       .  S
C433        C434   1.404       .  A
C434        H438   1.084       .  S
C439        C440   1.413       .  A
C439        C444   1.395       .  A
C439        H445   1.080       .  S
C440        C441   1.424       .  A
C441        C442   1.408       .  A
C441        H446   1.075       .  S
C442        C443   1.399       .  A
C442        H447   1.083       .  S
C443        C444   1.406       .  A
C444        H448   1.084       .  S
C449        C634   1.565       .  S
C449        C644   1.574       .  S
C449        C654   1.576       .  S
C449        C664   1.572       .  S
O450        C458   1.253       .  A
O450       Co470   1.973       .  S
O451        C459   1.264       .  A
O451       Co471   1.871       .  S
O452        C460   1.266       .  A
O452       Co472   2.023       .  S
O453        C461   1.312       .  A
O453       Co697   2.140   1_545  S
O454        C460   1.251       .  A
O454       Co471   1.973       .  S
O455        C461   1.260       .  A
O455       Co470   1.858       .  S
O456        C459   1.313       .  A
O456       Co473   2.137       .  S
O457        C458   1.269       .  A
O457       Co696   2.027   1_545  S
C458        C631   1.438       .  S
C459        C606   1.486       .  S
C460        C625   1.438       .  S
C461        C619   1.495       .  S
O462        C475   1.238       .  A
O462       Co470   1.944       .  S
O463        C476   1.267       .  A
O463       Co471   1.994       .  S
O464        C477   1.274       .  A
O464       Co696   2.028   1_545  S
O465        C478   1.258       .  A
O465       Co473   2.018       .  S
O466        C478   1.236       .  A
O466       Co471   1.940       .  S
O467        C477   1.260       .  A
O467       Co470   1.981       .  S
O468        C475   1.259       .  A
O468       Co697   2.020   1_545  S
O469        C476   1.274       .  A
O469       Co472   2.009       .  S
Co470       O698   1.872   1_545  S
Co471       O474   1.879       .  S
Co472       O681   2.027       .  S
Co472       O688   2.028       .  S
Co472       O474   2.117       .  S
Co473       O677   2.140       .  S
Co473       O692   2.020       .  S
Co473       O474   2.294       .  S
O474       Co694   1.872       .  S
C475        C627   1.430       .  S
C476        C657   1.484       .  S
C477        C667   1.491       .  S
C478        C629   1.428       .  S
N479        H511   1.041       .  S
N479        C483   1.349       .  A
N480        C487   1.352       .  A
N480        C488   1.352       .  A
N481        H512   1.041       .  S
N481        C485   1.351       .  A
N482        C489   1.349       .  A
N482        C490   1.349       .  A
C483        C491   1.387       .  A
C483        C499   1.404       .  A
C484        C500   1.408       .  A
C485        C493   1.386       .  A
C485        C502   1.406       .  A
C486        C501   1.410       .  A
C487        C499   1.416       .  A
C487        C495   1.387       .  A
C488        C502   1.416       .  A
C488        C496   1.387       .  A
C489        C497   1.387       .  A
C489        C500   1.412       .  A
C490        C498   1.387       .  A
C490        C501   1.412       .  A
C491        C492   1.371       .  A
C491        H503   1.083       .  S
C493        C494   1.371       .  A
C493        H505   1.082       .  S
C495        C496   1.385       .  A
C495        H507   1.082       .  S
C496        H508   1.083       .  S
C497        C498   1.381       .  A
C497        H509   1.083       .  S
C498        H510   1.083       .  S
C499        C626   1.450       .  S
C500        C630   1.445       .  S
C501        C628   1.446       .  S
C502        C632   1.452       .  S
C513        C589   1.567       .  S
C513        C596   1.562       .  S
C513        C609   1.566       .  S
C513        C616   1.561       .  S
N514        H546   1.038   1_556  S
N514        C519   1.351       .  A
N514        C518   1.353       .  A
N515        C746   1.350       .  A
N515        C523   1.347       .  A
N516        H547   1.041       .  S
N516        C521   1.356       .  A
N516        C520   1.355       .  A
N517        C748   1.350       .  A
N517        C525   1.350       .  A
C518        C526   1.388       .  A
C518        C534   1.416       .  A
C519        C535   1.415       .  A
C519        C527   1.388       .  A
C520        C528   1.388       .  A
C520        C537   1.420       .  A
C521        C536   1.420       .  A
C521        C529   1.388       .  A
C522        N739   1.350       .  A
C522        C534   1.407   1_564  A
C522        C754   1.386       .  A
C523        C537   1.405       .  A
C523        C531   1.388       .  A
C524        N741   1.350   1_545  A
C524        C756   1.389   1_545  A
C524        C535   1.409   1_554  A
C525        C533   1.387       .  A
C525        C536   1.405       .  A
C526        C527   1.382       .  A
C526        H538   1.083       .  S
C527        H539   1.083       .  S
C528        C529   1.384       .  A
C528        H540   1.083       .  S
C529        H541   1.082       .  S
C530        C746   1.386       .  A
C530        C531   1.368       .  A
C530        H766   1.082       .  S
C531        H543   1.083       .  S
C532        C748   1.389       .  A
C532        C533   1.366       .  A
C532        H768   1.082       .  S
C533        H545   1.082       .  S
C534        C583   1.450       .  S
C535        C578   1.444       .  S
C536        C581   1.453       .  S
C537        C580   1.448       .  S
H542        C754   1.082   1_545  S
H544        C756   1.082   1_545  S
O548        C556   1.251       .  A
O548       Co568   1.976       .  S
O549        C557   1.263       .  A
O549       Co569   1.866       .  S
O550        C558   1.266   1_556  A
O550       Co570   2.025       .  S
O551        C559   1.314       .  A
O552        C558   1.250       .  A
O552       Co569   1.967       .  S
O553        C559   1.260       .  A
O553       Co568   1.861       .  S
O554        C557   1.312       .  A
O554       Co571   2.135       .  S
O555        C556   1.267   1_556  A
C556        C579   1.435       .  S
C557        C586   1.487       .  S
C558        C582   1.437       .  S
C559        C599   1.498       .  S
O560        C573   1.238       .  A
O560       Co568   1.947   1_556  S
O561        C574   1.266       .  A
O561       Co569   1.997   1_556  S
O562        C575   1.272       .  A
O563        C576   1.260   1_554  A
O563       Co571   2.019       .  S
O564        C576   1.237       .  A
O564       Co569   1.939   1_556  S
O565        C575   1.261       .  A
O565       Co568   1.981   1_556  S
O566        C573   1.258   1_554  A
O567        C574   1.273       .  A
O567       Co570   2.012       .  S
Co569       O572   1.883   1_554  S
Co570       O572   2.121       .  S
Co571       O572   2.295   1_554  S
C573        C584   1.432       .  S
C574        C637   1.485       .  S
C575        C647   1.485       .  S
C576        C577   1.428       .  S
C577        C578   1.203       .  T
C579        C580   1.207       .  T
C581        C582   1.209       .  T
C583        C584   1.206       .  T
C585        C586   1.402       .  A
C585        C590   1.411       .  A
C585        H591   1.083       .  S
C586        C587   1.405       .  A
C587        C588   1.396       .  A
C587        H592   1.082       .  S
C588        C589   1.412       .  A
C588        H593   1.083       .  S
C589        C590   1.421       .  A
C590        H594   1.079       .  S
C595        C596   1.423       .  A
C595        C600   1.415       .  A
C595        H601   1.083       .  S
C596        C597   1.407       .  A
C597        C598   1.391       .  A
C597        H602   1.080       .  S
C598        C599   1.412       .  A
C598        H603   1.083       .  S
C599        C600   1.403       .  A
C600        H604   1.082       .  S
C605        C606   1.404       .  A
C605        C610   1.395       .  A
C605        H611   1.081       .  S
C606        C607   1.403       .  A
C607        C608   1.412       .  A
C607        H612   1.083       .  S
C608        C609   1.421       .  A
C608        H613   1.079       .  S
C609        C610   1.411       .  A
C610        H614   1.083       .  S
C615        C616   1.423       .  A
C615        C620   1.414       .  A
C615        H621   1.083       .  S
C616        C617   1.407       .  A
C617        C618   1.391       .  A
C617        H622   1.080       .  S
C618        C619   1.410       .  A
C618        H623   1.084       .  S
C619        C620   1.403       .  A
C620        H624   1.083       .  S
C625        C626   1.209       .  T
C627        C628   1.205       .  T
C629        C630   1.203       .  T
C631        C632   1.209       .  T
C633        C634   1.415       .  A
C633        C638   1.397       .  A
C633        H639   1.082       .  S
C634        C635   1.420       .  A
C635        C636   1.403       .  A
C635        H640   1.079       .  S
C636        C637   1.399       .  A
C636        H641   1.083       .  S
C637        C638   1.406       .  A
C638        H642   1.083       .  S
C643        C644   1.424       .  A
C643        C648   1.406       .  A
C643        H649   1.074       .  S
C644        C645   1.415       .  A
C645        C646   1.395       .  A
C645        H650   1.082       .  S
C646        C647   1.404       .  A
C646        H651   1.084       .  S
C647        C648   1.398       .  A
C648        H652   1.083       .  S
C653        C654   1.416       .  A
C653        C658   1.400       .  A
C653        H659   1.083       .  S
C654        C655   1.424       .  A
C655        C656   1.403       .  A
C655        H660   1.076       .  S
C656        C657   1.397       .  A
C656        H661   1.083       .  S
C657        C658   1.404       .  A
C658        H662   1.084       .  S
C663        C664   1.413       .  A
C663        C668   1.395       .  A
C663        H669   1.080       .  S
C664        C665   1.424       .  A
C665        C666   1.408       .  A
C665        H670   1.075       .  S
C666        C667   1.399       .  A
C666        H671   1.083       .  S
C667        C668   1.406       .  A
C668        H672   1.084       .  S
C673        C858   1.565       .  S
C673        C868   1.574       .  S
C673        C878   1.576       .  S
C673        C888   1.572       .  S
O674        C682   1.253       .  A
O674       Co694   1.973       .  S
O675        C683   1.264       .  A
O675       Co695   1.871       .  S
O676        C684   1.266       .  A
O676       Co696   2.023       .  S
O677        C685   1.312       .  A
O678        C684   1.251       .  A
O678       Co695   1.973       .  S
O679        C685   1.260       .  A
O679       Co694   1.858       .  S
O680        C683   1.313       .  A
O680       Co697   2.137       .  S
O681        C682   1.269       .  A
C682        C855   1.438       .  S
C683        C830   1.486       .  S
C684        C849   1.438       .  S
C685        C843   1.495       .  S
O686        C699   1.238       .  A
O686       Co694   1.944       .  S
O687        C700   1.267       .  A
O687       Co695   1.994       .  S
O688        C701   1.274       .  A
O689        C702   1.258       .  A
O689       Co697   2.018       .  S
O690        C702   1.236       .  A
O690       Co695   1.940       .  S
O691        C701   1.260       .  A
O691       Co694   1.981       .  S
O692        C699   1.259       .  A
O693        C700   1.274       .  A
O693       Co696   2.009       .  S
Co695       O698   1.879       .  S
Co696       O698   2.117       .  S
Co697       O698   2.294       .  S
C699        C851   1.430       .  S
C700        C881   1.484       .  S
C701        C891   1.491       .  S
C702        C853   1.428       .  S
N703        H735   1.041       .  S
N703        C707   1.349       .  A
N704        C711   1.352       .  A
N704        C712   1.352       .  A
N705        H736   1.041       .  S
N705        C709   1.351       .  A
N706        C713   1.349       .  A
N706        C714   1.349       .  A
C707        C715   1.387       .  A
C707        C723   1.403       .  A
C708        C724   1.408       .  A
C709        C717   1.386       .  A
C709        C726   1.406       .  A
C710        C725   1.410       .  A
C711        C723   1.416       .  A
C711        C719   1.387       .  A
C712        C726   1.416       .  A
C712        C720   1.387       .  A
C713        C721   1.387       .  A
C713        C724   1.412       .  A
C714        C722   1.387       .  A
C714        C725   1.412       .  A
C715        C716   1.371       .  A
C715        H727   1.083       .  S
C717        C718   1.371       .  A
C717        H729   1.082       .  S
C719        C720   1.385       .  A
C719        H731   1.082       .  S
C720        H732   1.083       .  S
C721        C722   1.381       .  A
C721        H733   1.083       .  S
C722        H734   1.083       .  S
C723        C850   1.450       .  S
C724        C854   1.445       .  S
C725        C852   1.446       .  S
C726        C856   1.452       .  S
C737        C813   1.567       .  S
C737        C820   1.562       .  S
C737        C833   1.566       .  S
C737        C840   1.561       .  S
N738        H770   1.038   1_556  S
N738        C743   1.351       .  A
N738        C742   1.353       .  A
N739        C747   1.347       .  A
N740        H771   1.041       .  S
N740        C745   1.356       .  A
N740        C744   1.355       .  A
N741        C749   1.350       .  A
C742        C750   1.388       .  A
C742        C758   1.416       .  A
C743        C759   1.415       .  A
C743        C751   1.388       .  A
C744        C752   1.388       .  A
C744        C761   1.420       .  A
C745        C760   1.420       .  A
C745        C753   1.388       .  A
C746        C758   1.407   1_554  A
C747        C761   1.405       .  A
C747        C755   1.388       .  A
C748        C759   1.409   1_554  A
C749        C757   1.387       .  A
C749        C760   1.405       .  A
C750        C751   1.382       .  A
C750        H762   1.083       .  S
C751        H763   1.083       .  S
C752        C753   1.384       .  A
C752        H764   1.083       .  S
C753        H765   1.082       .  S
C754        C755   1.368       .  A
C755        H767   1.083       .  S
C756        C757   1.366       .  A
C757        H769   1.082       .  S
C758        C807   1.450       .  S
C759        C802   1.444       .  S
C760        C805   1.453       .  S
C761        C804   1.448       .  S
O772        C780   1.251       .  A
O772       Co792   1.976       .  S
O773        C781   1.263       .  A
O773       Co793   1.866       .  S
O774        C782   1.266   1_556  A
O774       Co794   2.025       .  S
O775        C783   1.314       .  A
O776        C782   1.250       .  A
O776       Co793   1.967       .  S
O777        C783   1.260       .  A
O777       Co792   1.861       .  S
O778        C781   1.312       .  A
O778       Co795   2.135       .  S
O779        C780   1.267   1_556  A
C780        C803   1.435       .  S
C781        C810   1.487       .  S
C782        C806   1.437       .  S
C783        C823   1.498       .  S
O784        C797   1.238       .  A
O784       Co792   1.947   1_556  S
O785        C798   1.266       .  A
O785       Co793   1.997   1_556  S
O786        C799   1.272       .  A
O787        C800   1.260   1_554  A
O787       Co795   2.019       .  S
O788        C800   1.237       .  A
O788       Co793   1.939   1_556  S
O789        C799   1.261       .  A
O789       Co792   1.981   1_556  S
O790        C797   1.258   1_554  A
O791        C798   1.273       .  A
O791       Co794   2.012       .  S
Co793       O796   1.883   1_554  S
Co794       O796   2.121       .  S
Co795       O796   2.295   1_554  S
C797        C808   1.432       .  S
C798        C861   1.485       .  S
C799        C871   1.485       .  S
C800        C801   1.428       .  S
C801        C802   1.203       .  T
C803        C804   1.207       .  T
C805        C806   1.209       .  T
C807        C808   1.206       .  T
C809        C810   1.402       .  A
C809        C814   1.411       .  A
C809        H815   1.083       .  S
C810        C811   1.405       .  A
C811        C812   1.396       .  A
C811        H816   1.082       .  S
C812        C813   1.412       .  A
C812        H817   1.083       .  S
C813        C814   1.421       .  A
C814        H818   1.079       .  S
C819        C820   1.423       .  A
C819        C824   1.415       .  A
C819        H825   1.083       .  S
C820        C821   1.407       .  A
C821        C822   1.391       .  A
C821        H826   1.080       .  S
C822        C823   1.412       .  A
C822        H827   1.083       .  S
C823        C824   1.403       .  A
C824        H828   1.082       .  S
C829        C830   1.404       .  A
C829        C834   1.395       .  A
C829        H835   1.081       .  S
C830        C831   1.403       .  A
C831        C832   1.412       .  A
C831        H836   1.083       .  S
C832        C833   1.421       .  A
C832        H837   1.079       .  S
C833        C834   1.411       .  A
C834        H838   1.083       .  S
C839        C840   1.423       .  A
C839        C844   1.414       .  A
C839        H845   1.083       .  S
C840        C841   1.407       .  A
C841        C842   1.391       .  A
C841        H846   1.080       .  S
C842        C843   1.410       .  A
C842        H847   1.084       .  S
C843        C844   1.403       .  A
C844        H848   1.083       .  S
C849        C850   1.209       .  T
C851        C852   1.205       .  T
C853        C854   1.203       .  T
C855        C856   1.209       .  T
C857        C858   1.415       .  A
C857        C862   1.397       .  A
C857        H863   1.082       .  S
C858        C859   1.420       .  A
C859        C860   1.403       .  A
C859        H864   1.079       .  S
C860        C861   1.399       .  A
C860        H865   1.083       .  S
C861        C862   1.406       .  A
C862        H866   1.083       .  S
C867        C868   1.424       .  A
C867        C872   1.406       .  A
C867        H873   1.074       .  S
C868        C869   1.415       .  A
C869        C870   1.395       .  A
C869        H874   1.082       .  S
C870        C871   1.404       .  A
C870        H875   1.084       .  S
C871        C872   1.398       .  A
C872        H876   1.083       .  S
C877        C878   1.416       .  A
C877        C882   1.400       .  A
C877        H883   1.083       .  S
C878        C879   1.424       .  A
C879        C880   1.403       .  A
C879        H884   1.076       .  S
C880        C881   1.397       .  A
C880        H885   1.083       .  S
C881        C882   1.404       .  A
C882        H886   1.084       .  S
C887        C888   1.413       .  A
C887        C892   1.395       .  A
C887        H893   1.080       .  S
C888        C889   1.424       .  A
C889        C890   1.408       .  A
C889        H894   1.075       .  S
C890        C891   1.399       .  A
C890        H895   1.083       .  S
C891        C892   1.406       .  A
C892        H896   1.084       .  S
