geometry optimzed in LAMMPS
_audit_creation_date              2020-12-01 
_audit_creation_method            'lammps2cif' 
_symmetry_space_group_name_H-M    'P1' 
_symmetry_Int_Tables_number       1 
_symmetry_cell_setting            triclinic 
loop_ 
_symmetry_equiv_pos_as_xyz 
  x,y,z 
_cell_length_a                    40.41872875 
_cell_length_b                    40.47271084731143 
_cell_length_c                    55.692685380635545 
_cell_angle_alpha                 89.97663828932677 
_cell_angle_beta                  90.07874909639565 
_cell_angle_gamma                 89.9674844783228 
loop_ 
_atom_site_label 
_atom_site_type_symbol 
_atom_site_fract_x 
_atom_site_fract_y 
_atom_site_fract_z 
_atom_site_charge 
O1          O  0.85022925  0.94391314  0.63057291    -0.71500
O2          O  0.81266901  0.85768945  0.62768540    -0.71700
O3          O  0.81337760  0.90636357  0.66035017    -0.71600
O4          O  0.84927182  0.89492201  0.59800603    -0.71600
O5          O  0.89455166  0.87577810  0.61352722    -0.71600
O6          O  0.85740820  0.88445962  0.67580068    -0.71600
O7          O  0.85807290  0.83732230  0.64225688    -0.71500
O8          O  0.89409854  0.92321397  0.64745231    -0.71700
V9          V  0.83224547  0.90040933  0.62945022     1.35200
V10         V  0.87520665  0.88067791  0.64443196     1.35200
C11         C  0.87847938  0.94814420  0.63986032     0.77700
C12         C  0.82911086  0.83272562  0.63439047     0.77800
C13         C  0.82885740  0.89661954  0.67875875     0.77600
C14         C  0.87781917  0.88293661  0.59500913     0.77600
O15         O  0.05965636  0.14216248  0.63427145    -0.71500
O16         O  0.14554156  0.18129769  0.63328079    -0.71700
O17         O  0.10844752  0.14717364  0.60181262    -0.71600
O18         O  0.09677667  0.17703275  0.66562862    -0.71600
O19         O  0.11780968  0.13134734  0.67915593    -0.71600
O20         O  0.13033897  0.10171900  0.61487851    -0.71600
O21         O  0.16632911  0.13563907  0.64686427    -0.71500
O22         O  0.08167920  0.09643919  0.64711817    -0.71700
V23         V  0.10293963  0.16103278  0.63402271     1.35200
V24         V  0.12349885  0.11715405  0.64679490     1.35200
C25         C  0.05644679  0.11214553  0.64020316     0.77700
C26         C  0.17067280  0.16505234  0.64003244     0.77800
C27         C  0.12185439  0.11971675  0.59729945     0.77600
C28         C  0.10626419  0.15987063  0.68328604     0.77600
O29         O  0.06522435  0.28612243  0.89700616    -0.71500
O30         O  0.15282131  0.25144488  0.89552062    -0.71700
O31         O  0.11652026  0.28479011  0.92765082    -0.71600
O32         O  0.10168084  0.25238533  0.86467812    -0.71600
O33         O  0.12180914  0.29750939  0.84977507    -0.71600
O34         O  0.13239523  0.33177158  0.91299647    -0.71600
O35         O  0.17080375  0.29844781  0.88223786    -0.71500
O36         O  0.08326344  0.33121309  0.88032136    -0.71700
V37         V  0.10934593  0.26954859  0.89590078     1.35200
V38         V  0.12664065  0.31388286  0.88162354     1.35200
C39         C  0.05948003  0.31457822  0.88861615     0.77700
C40         C  0.17689708  0.26930071  0.88905357     0.77800
C41         C  0.12724846  0.31367368  0.93117791     0.77600
C42         C  0.10992954  0.26899164  0.84638275     0.77600
O43         O  0.86554224  0.49584727  0.89395073    -0.71500
O44         O  0.82363072  0.58016903  0.89265551    -0.71700
O45         O  0.83064740  0.53021912  0.86113269    -0.71600
O46         O  0.85808729  0.54554518  0.92526395    -0.71600
O47         O  0.90438917  0.56575770  0.91244787    -0.71600
O48         O  0.87486091  0.55452740  0.84793768    -0.71600
O49         O  0.86996178  0.60237732  0.88132045    -0.71500
O50         O  0.90993622  0.51817805  0.87939363    -0.71700
V51         V  0.84528973  0.53836067  0.89294064     1.35200
V52         V  0.88888886  0.55974269  0.88045150     1.35200
C53         C  0.89519539  0.49278232  0.88707432     0.77700
C54         C  0.84011178  0.60575104  0.88741998     0.77800
C55         C  0.84785113  0.53984216  0.84355039     0.77600
C56         C  0.88596057  0.55802615  0.92995325     0.77600
O57         O  0.50944116  0.28934138  0.62987006    -0.71500
O58         O  0.42550941  0.24626006  0.63107279    -0.71700
O59         O  0.45782417  0.28535968  0.59968767    -0.71600
O60         O  0.47740118  0.25002320  0.66109090    -0.71600
O61         O  0.45734362  0.29409134  0.67782624    -0.71600
O62         O  0.43363579  0.32744905  0.61635127    -0.71600
O63         O  0.40454680  0.28880314  0.64923422    -0.71500
O64         O  0.48659425  0.33313858  0.64505222    -0.71700
V65         V  0.46711551  0.26854581  0.63073360     1.35200
V66         V  0.44601666  0.31004640  0.64679528     1.35200
C67         C  0.51208345  0.31893386  0.63694016     0.77700
C68         C  0.40088067  0.26003307  0.64095623     0.77800
C69         C  0.44210726  0.31218809  0.59753183     0.77600
C70         C  0.47083769  0.26601401  0.67995112     0.77600
O71         O  0.71927584  0.48901136  0.63073890    -0.71500
O72         O  0.75696364  0.57525454  0.62878325    -0.71700
O73         O  0.75739757  0.52534237  0.66076074    -0.71600
O74         O  0.71926731  0.53906708  0.59903899    -0.71600
O75         O  0.67564010  0.56039102  0.61576723    -0.71600
O76         O  0.71307684  0.54476163  0.67735625    -0.71600
O77         O  0.71318090  0.59495770  0.64612923    -0.71500
O78         O  0.67512850  0.50962270  0.64716487    -0.71700
V79         V  0.73741063  0.53248188  0.63018717     1.35200
V80         V  0.69508499  0.55189473  0.64627574     1.35200
C81         C  0.69048533  0.48482838  0.63906481     0.77700
C82         C  0.74129180  0.59988026  0.63694546     0.77800
C83         C  0.74191969  0.53313837  0.67969556     0.77600
C84         C  0.69140166  0.55295415  0.59693252     0.77600
O85         O  0.71501652  0.94236198  0.89361458    -0.71500
O86         O  0.75942360  0.85979584  0.89691124    -0.71700
O87         O  0.75095509  0.90579737  0.86293307    -0.71600
O88         O  0.72351845  0.89604730  0.92770225    -0.71600
O89         O  0.67765683  0.87373492  0.91567182    -0.71600
O90         O  0.70772082  0.87834500  0.85122956    -0.71600
O91         O  0.71366076  0.83485070  0.88720457    -0.71500
O92         O  0.67140985  0.91755967  0.87974576    -0.71700
V93         V  0.73636182  0.90059886  0.89508722     1.35200
V94         V  0.69343380  0.87669148  0.88366653     1.35200
C95         C  0.68576917  0.94404398  0.88563142     0.77700
C96         C  0.74381420  0.83332001  0.89296670     0.77800
C97         C  0.73459340  0.89264251  0.84610103     0.77600
C98         C  0.69604172  0.88292803  0.93280452     0.77600
O99         O  0.51699796  0.14993141  0.89448017    -0.71500
O100        O  0.43413008  0.19440870  0.89315365    -0.71700
O101        O  0.46716354  0.15823962  0.92577034    -0.71600
O102        O  0.48411527  0.18596553  0.86180165    -0.71600
O103        O  0.46413678  0.13961461  0.84861841    -0.71600
O104        O  0.43961507  0.11621592  0.91196934    -0.71600
O105        O  0.41177754  0.15120852  0.87665878    -0.71500
O106        O  0.49209458  0.10446672  0.88413514    -0.71700
V107        V  0.47519047  0.17137190  0.89354223     1.35200
V108        V  0.45242927  0.12870996  0.88057706     1.35200
C109        C  0.51823736  0.11930336  0.89024979     0.77700
C110        C  0.40893778  0.18045006  0.88424931     0.77800
C111        C  0.44958760  0.13297100  0.92966979     0.77600
C112        C  0.47746496  0.16722408  0.84429311     0.77600
O113        O  0.36220985  0.44665404  0.39386766    -0.71500
O114        O  0.31735348  0.36407470  0.39819090    -0.71700
O115        O  0.35770317  0.39894716  0.42701555    -0.71600
O116        O  0.32142453  0.41173447  0.36485636    -0.71600
O117        O  0.36675399  0.39263880  0.34910419    -0.71600
O118        O  0.39686788  0.36900498  0.41149530    -0.71600
O119        O  0.35754448  0.34104150  0.37842291    -0.71500
O120        O  0.40634276  0.42054065  0.38223371    -0.71700
V121        V  0.34038765  0.40498669  0.39566031     1.35200
V122        V  0.38113293  0.38130785  0.38056525     1.35200
C123        C  0.39266955  0.44715878  0.38864715     0.77700
C124        C  0.32954201  0.33869965  0.38829527     0.77800
C125        C  0.38294403  0.38094230  0.42987837     0.77600
C126        C  0.33815499  0.40476743  0.34638843     0.77600
O127        O  0.56587646  0.64964579  0.39570376    -0.71500
O128        O  0.65055704  0.69054488  0.39853256    -0.71700
O129        O  0.60106069  0.68914618  0.36638871    -0.71600
O130        O  0.61540070  0.65112240  0.42780896    -0.71600
O131        O  0.63853795  0.60854817  0.41106554    -0.71600
O132        O  0.62193341  0.64546579  0.34954190    -0.71600
O133        O  0.67214756  0.64784954  0.38090765    -0.71500
O134        O  0.58822336  0.60632727  0.37931191    -0.71700
V135        V  0.60861943  0.66928628  0.39677989     1.35200
V136        V  0.62976290  0.62785438  0.38058345     1.35200
C137        C  0.56273046  0.62102720  0.38690654     0.77700
C138        C  0.67569336  0.67635236  0.38977297     0.77800
C139        C  0.60917377  0.67383422  0.34752106     0.77600
C140        C  0.62993342  0.62361401  0.42994219     0.77600
O141        O  0.01388057  0.65291037  0.13136376    -0.71500
O142        O  0.92665859  0.68890387  0.13162281    -0.71700
O143        O  0.97781051  0.68879825  0.16233425    -0.71600
O144        O  0.96261876  0.65337742  0.10037876    -0.71600
O145        O  0.94553313  0.60751899  0.11623556    -0.71600
O146        O  0.95750925  0.64438898  0.17841173    -0.71600
O147        O  0.90816822  0.64297882  0.14645270    -0.71500
O148        O  0.99498697  0.60864957  0.14858132    -0.71700
V149        V  0.96992744  0.67011986  0.13168559     1.35200
V150        V  0.95197618  0.62672478  0.14706943     1.35200
C151        C  0.01927562  0.62483738  0.14060902     0.77700
C152        C  0.90251774  0.67202298  0.13934856     0.77800
C153        C  0.96980652  0.67291976  0.18095202     0.77600
C154        C  0.95143275  0.62446229  0.09764409     0.77600
O155        O  0.22366483  0.45494886  0.13110016    -0.71500
O156        O  0.26015212  0.36822814  0.12979764    -0.71700
O157        O  0.22485922  0.40518992  0.09908003    -0.71600
O158        O  0.25940020  0.41730796  0.16183512    -0.71600
O159        O  0.21250433  0.40142001  0.17699606    -0.71600
O160        O  0.18111268  0.38232738  0.11409820    -0.71600
O161        O  0.21604529  0.34962673  0.14744925    -0.71500
O162        O  0.17709251  0.43430398  0.14358766    -0.71700
V163        V  0.24115814  0.41118628  0.13075373     1.35200
V164        V  0.19752098  0.39239649  0.14526784     1.35200
C165        C  0.19362470  0.45897026  0.13670180     0.77700
C166        C  0.24455233  0.34435078  0.13908210     0.77800
C167        C  0.19761463  0.39060923  0.09574356     0.77600
C168        C  0.24204298  0.41081069  0.18008525     0.77600
O169        O  0.36374366  0.00385449  0.13380472    -0.71500
O170        O  0.32215882  0.08834241  0.13098129    -0.71700
O171        O  0.35933292  0.05224637  0.10075335    -0.71600
O172        O  0.32630446  0.03997437  0.16392856    -0.71600
O173        O  0.37205466  0.05947396  0.17841809    -0.71600
O174        O  0.40182421  0.07829880  0.11534309    -0.71600
O175        O  0.36538156  0.10995172  0.14787794    -0.71500
O176        O  0.40905411  0.02763710  0.14576951    -0.71700
V177        V  0.34367829  0.04646404  0.13262828     1.35200
V178        V  0.38622947  0.06830973  0.14659921     1.35200
C179        C  0.39388192  0.00167728  0.13977313     0.77700
C180        C  0.33671604  0.11358414  0.13924854     0.77800
C181        C  0.38580347  0.06816534  0.09729848     0.77600
C182        C  0.34357141  0.04765895  0.18204783     0.77600
O183        O  0.56330988  0.79461011  0.13349306    -0.71500
O184        O  0.64873002  0.75468951  0.13340191    -0.71700
O185        O  0.59805413  0.75636758  0.16416407    -0.71600
O186        O  0.61436208  0.79218105  0.10260446    -0.71600
O187        O  0.63476679  0.83652019  0.11879997    -0.71600
O188        O  0.61870870  0.80041998  0.18077112    -0.71600
O189        O  0.66917734  0.79888127  0.14973120    -0.71500
O190        O  0.58442030  0.83823578  0.15031399    -0.71700
V191        V  0.60641436  0.77535495  0.13373135     1.35200
V192        V  0.62632218  0.81769500  0.14954404     1.35200
C193        C  0.55947202  0.82330053  0.14209154     0.77700
C194        C  0.67346157  0.76996451  0.14185636     0.77800
C195        C  0.60621672  0.77195105  0.18286584     0.77600
C196        C  0.62768643  0.82017721  0.10012012     0.77600
O197        O  0.01552030  0.79470437  0.39283938    -0.71500
O198        O  0.92796415  0.75988460  0.39473187    -0.71700
O199        O  0.97668072  0.76144826  0.36199345    -0.71600
O200        O  0.96661226  0.79279774  0.42563645    -0.71600
O201        O  0.94810120  0.83952809  0.41198551    -0.71600
O202        O  0.95690232  0.80743858  0.34818843    -0.71600
O203        O  0.90893845  0.80653029  0.38140194    -0.71500
O204        O  0.99599826  0.84064125  0.37856780    -0.71700
V205        V  0.97137568  0.77810520  0.39353581     1.35200
V206        V  0.95291097  0.82265577  0.38032100     1.35200
C207        C  0.02063878  0.82369628  0.38520343     0.77700
C208        C  0.90347454  0.77733679  0.38832343     0.77800
C209        C  0.96816275  0.77884568  0.34416010     0.77600
C210        C  0.95535243  0.82137586  0.42971921     0.77600
O211        O  0.22419626  0.99510380  0.39566058    -0.71500
O212        O  0.25694919  0.08320968  0.39747450    -0.71700
O213        O  0.22354058  0.04451358  0.42798999    -0.71600
O214        O  0.25772142  0.03419198  0.36492975    -0.71600
O215        O  0.21116611  0.05141397  0.35027269    -0.71600
O216        O  0.17751444  0.06314777  0.41320446    -0.71600
O217        O  0.21091694  0.10093146  0.38226189    -0.71500
O218        O  0.17756174  0.01351959  0.38143490    -0.71700
V219        V  0.23973543  0.03952698  0.39620465     1.35200
V220        V  0.19520975  0.05681114  0.38202817     1.35200
C221        C  0.19500010  0.98957616  0.38860198     0.77700
C222        C  0.23942738  0.10722493  0.39043600     0.77800
C223        C  0.19499717  0.05639869  0.43139167     0.77600
C224        C  0.24037431  0.04147904  0.34674071     0.77600
C225        C  0.05420138  0.83824145  0.38379759    -0.11700
C226        C  0.07971187  0.83070827  0.40031187     0.03800
C227        C  0.10895660  0.84937040  0.40021477    -0.12200
C228        C  0.11313450  0.87564391  0.38402483     0.18600
C229        C  0.08875628  0.88144026  0.36644539    -0.09300
C230        C  0.05975336  0.86281036  0.36644558    -0.02200
H231        H  0.12758314  0.84480529  0.41382118     0.05200
C232        C  0.13969953  0.90020149  0.38798924     0.20600
H233        H  0.04075258  0.86860632  0.35336468     0.10300
C234        C  0.16388336  0.90543786  0.37026395    -0.15600
C235        C  0.18400995  0.93363520  0.37092769     0.03300
C236        C  0.18038077  0.95649603  0.38974872    -0.10900
C237        C  0.15807472  0.94997165  0.40833489    -0.01000
C238        C  0.13773827  0.92215042  0.40759713    -0.06100
H239        H  0.16548307  0.88882164  0.35506364     0.06300
H240        H  0.15500564  0.96770656  0.42274385     0.09700
Br241      Br  0.09207616  0.91680023  0.34355390    -0.05800
Br242      Br  0.07488640  0.79813652  0.42511647    -0.02800
Br243      Br  0.21359482  0.94182365  0.34469284     0.00100
Br244      Br  0.10493739  0.91769255  0.43230836    -0.04300
C245        C  0.33023489  0.04336287  0.20669978    -0.11700
C246        C  0.34439646  0.05894814  0.22704783     0.03800
C247        C  0.32946223  0.05555317  0.24953904    -0.12200
C248        C  0.30072752  0.03666085  0.25249299     0.18600
C249        C  0.28678259  0.02076263  0.23242265    -0.09300
C250        C  0.30151134  0.02418001  0.20985094    -0.02200
H251        H  0.34000028  0.06833966  0.26483053     0.05200
C252        C  0.28467731  0.03573023  0.27636239     0.20600
H253        H  0.29023376  0.01183151  0.19465686     0.10300
C254        C  0.25336030  0.05005623  0.27908282    -0.15600
C255        C  0.23805759  0.05175527  0.30154899     0.03300
C256        C  0.25437104  0.03893557  0.32211339    -0.10900
C257        C  0.28573558  0.02431495  0.31917031    -0.01000
C258        C  0.30090501  0.02273965  0.29664371    -0.06100
H259        H  0.24099229  0.06065452  0.26361530     0.06300
H260        H  0.29880445  0.01423023  0.33450063     0.09700
Br261      Br  0.24788988  0.99378360  0.23494545    -0.05800
Br262      Br  0.38295930  0.08666138  0.22581079    -0.02800
Br263      Br  0.19566514  0.07329236  0.30231170     0.00100
Br264      Br  0.34368948  0.00233847  0.29449151    -0.04300
C265        C  0.41191911  0.97014282  0.13913504    -0.11700
C266        C  0.39981985  0.94114921  0.15006604     0.03800
C267        C  0.41956316  0.91262928  0.15052822    -0.12200
C268        C  0.45125108  0.91278981  0.14024027     0.18600
C269        C  0.46304604  0.94170131  0.12913105    -0.09300
C270        C  0.44341799  0.96998397  0.12865718    -0.02200
H271        H  0.41063365  0.89063246  0.15950473     0.05200
C272        C  0.47319970  0.88384738  0.14255116     0.20600
H273        H  0.45305658  0.99222162  0.12037996     0.10300
C274        C  0.48041146  0.86494836  0.12209105    -0.15600
C275        C  0.50715652  0.84294202  0.12201984     0.03300
C276        C  0.52705662  0.83984354  0.14269016    -0.10900
C277        C  0.51822551  0.85695084  0.16364846    -0.01000
C278        C  0.49141076  0.87869947  0.16375635    -0.06100
H279        H  0.46663443  0.86904719  0.10566130     0.06300
H280        H  0.53325403  0.85459713  0.17968598     0.09700
Br281      Br  0.50667197  0.94442509  0.11563211    -0.05800
Br282      Br  0.35816207  0.94026614  0.16652834    -0.02800
Br283      Br  0.51797461  0.82135277  0.09239048     0.00100
Br284      Br  0.48272399  0.90327715  0.19253343    -0.04300
C285        C  0.32138295  0.14682283  0.13923755    -0.11700
C286        C  0.29560602  0.15612482  0.12340486     0.03800
C287        C  0.28361879  0.18858520  0.12374922    -0.12200
C288        C  0.29704066  0.21214199  0.13942796     0.18600
C289        C  0.32247224  0.20293199  0.15527325    -0.09300
C290        C  0.33431671  0.17059665  0.15511599    -0.02200
H291        H  0.26397564  0.19564596  0.11152431     0.05200
C292        C  0.28410968  0.24618756  0.13919018     0.20600
H293        H  0.35406606  0.16415775  0.16742484     0.10300
C294        C  0.26622821  0.25759083  0.15906194    -0.15600
C295        C  0.25378775  0.28975952  0.15961731     0.03300
C296        C  0.25890834  0.31096470  0.13984276    -0.10900
C297        C  0.27736675  0.29970218  0.12015172    -0.01000
C298        C  0.28985342  0.26750239  0.11966768    -0.06100
H299        H  0.26218048  0.24142601  0.17428205     0.06300
H300        H  0.28160862  0.31579425  0.10492162     0.09700
Br301      Br  0.34285209  0.23396376  0.17675936    -0.05800
Br302      Br  0.27686672  0.12681483  0.09995077    -0.02800
Br303      Br  0.23190125  0.30381807  0.18847212     0.00100
Br304      Br  0.31518115  0.25396641  0.09226416    -0.04300
C305        C  0.70665755  0.75464629  0.14221032    -0.11700
C306        C  0.73032357  0.76238296  0.16008073     0.03800
C307        C  0.76193415  0.74843399  0.15901791    -0.12200
C308        C  0.77049498  0.72675370  0.14046411     0.18600
C309        C  0.74676593  0.71818382  0.12308445    -0.09300
C310        C  0.71511015  0.73207886  0.12405479    -0.02200
H311        H  0.77995007  0.75449257  0.17272656     0.05200
C312        C  0.80418779  0.71285731  0.13988683     0.20600
H313        H  0.69725156  0.72563243  0.11034141     0.10300
C314        C  0.81204278  0.68667695  0.15525742    -0.15600
C315        C  0.84383369  0.67308240  0.15553863     0.03300
C316        C  0.86853921  0.68579316  0.14002085    -0.10900
C317        C  0.86052863  0.71246399  0.12488845    -0.01000
C318        C  0.82867746  0.72599985  0.12476328    -0.06100
H319        H  0.79333328  0.67691999  0.16722684     0.06300
H320        H  0.87901889  0.72275674  0.11299493     0.09700
Br321      Br  0.75654497  0.68745416  0.09786389    -0.05800
Br322      Br  0.72077747  0.79020415  0.18715938    -0.02800
Br323      Br  0.85168636  0.63857641  0.17860370     0.00100
Br324      Br  0.81974635  0.76280380  0.10402744    -0.04300
C325        C  0.97319904  0.68784951  0.20503221    -0.11700
C326        C  0.99723502  0.71220347  0.21030113     0.03800
C327        C  0.99759181  0.72727636  0.23290408    -0.12200
C328        C  0.97452954  0.71834135  0.25046433     0.18600
C329        C  0.95104542  0.69369317  0.24547355    -0.09300
C330        C  0.95060379  0.67856848  0.22295533    -0.02200
H331        H  0.01597707  0.74597429  0.23684906     0.05200
C332        C  0.97507552  0.73502433  0.27393420     0.20600
H333        H  0.93189475  0.66010025  0.21925629     0.10300
C334        C  0.95829142  0.76502907  0.27667720    -0.15600
C335        C  0.95616712  0.78037538  0.29913862     0.03300
C336        C  0.97119462  0.76540832  0.31944410    -0.10900
C337        C  0.98885279  0.73571346  0.31623392    -0.01000
C338        C  0.99087532  0.72058925  0.29376817    -0.06100
H339        H  0.94612770  0.77616923  0.26132435     0.06300
H340        H  0.00092152  0.72384662  0.33132097     0.09700
Br341      Br  0.91858934  0.68058656  0.26871021    -0.05800
Br342      Br  0.03115166  0.72499315  0.18803392    -0.02800
Br343      Br  0.93112586  0.82070985  0.30043064     0.00100
Br344      Br  0.01499039  0.67992422  0.29097690    -0.04300
C345        C  0.05278157  0.61043797  0.14167156    -0.11700
C346        C  0.06249350  0.59007100  0.16103499     0.03800
C347        C  0.09176750  0.57189589  0.15959154    -0.12200
C348        C  0.11190594  0.57377214  0.13918918     0.18600
C349        C  0.10364182  0.59606328  0.12070522    -0.09300
C350        C  0.07430434  0.61439943  0.12211168    -0.02200
H351        H  0.09795997  0.55487415  0.17393337     0.05200
C352        C  0.13751473  0.54813015  0.13591115     0.20600
H353        H  0.06741758  0.63028988  0.10726980     0.10300
C354        C  0.13150580  0.52342587  0.11882606    -0.15600
C355        C  0.15096923  0.49501687  0.11809025     0.03300
C356        C  0.17719110  0.49110587  0.13447161    -0.10900
C357        C  0.18458741  0.51657495  0.15067082    -0.01000
C358        C  0.16471031  0.54495139  0.15162612    -0.06100
H359        H  0.11044124  0.52543494  0.10685395     0.06300
H360        H  0.20464976  0.51360809  0.16341242     0.09700
Br361      Br  0.13102222  0.60103849  0.09284296    -0.05800
Br362      Br  0.03677767  0.58576760  0.18987062    -0.02800
Br363      Br  0.13990804  0.46151977  0.09503484     0.00100
Br364      Br  0.17462674  0.57804618  0.17518697    -0.04300
C365        C  0.70846960  0.69252462  0.39002051    -0.11700
C366        C  0.73112599  0.68851618  0.37095254     0.03800
C367        C  0.76225535  0.70341679  0.37216831    -0.12200
C368        C  0.77148926  0.72239141  0.39210794     0.18600
C369        C  0.74870279  0.72713969  0.41090430    -0.09300
C370        C  0.71744443  0.71228832  0.40972291    -0.02200
H371        H  0.77942286  0.70022383  0.35742359     0.05200
C372        C  0.80478657  0.73750370  0.39237044     0.20600
H373        H  0.70024995  0.71586404  0.42439755     0.10300
C374        C  0.81190886  0.76268851  0.37590894    -0.15600
C375        C  0.84377849  0.77592043  0.37412957     0.03300
C376        C  0.86931554  0.76405120  0.38927476    -0.10900
C377        C  0.86204329  0.73864435  0.40567080    -0.01000
C378        C  0.83019874  0.72525321  0.40720198    -0.06100
H379        H  0.79265973  0.77159086  0.36398636     0.06300
H380        H  0.88125072  0.72898201  0.41729842     0.09700
Br381      Br  0.75889122  0.75420380  0.43820272    -0.05800
Br382      Br  0.72048948  0.66480811  0.34208324    -0.02800
Br383      Br  0.85094440  0.80808478  0.34927888     0.00100
Br384      Br  0.82304637  0.68904980  0.42883209    -0.04300
C385        C  0.60406968  0.68857548  0.32363240    -0.11700
C386        C  0.61080154  0.72218209  0.31912365     0.03800
C387        C  0.60726502  0.73474140  0.29590889    -0.12200
C388        C  0.59656950  0.71452784  0.27697751     0.18600
C389        C  0.58927219  0.68105737  0.28156454    -0.09300
C390        C  0.59335083  0.66832248  0.30471170    -0.02200
H391        H  0.61384501  0.76024904  0.29245290     0.05200
C392        C  0.59643227  0.72818940  0.25234776     0.20600
H393        H  0.58801590  0.64248691  0.30796257     0.10300
C394        C  0.61749302  0.71408317  0.23516528    -0.15600
C395        C  0.62026286  0.72773410  0.21226480     0.03300
C396        C  0.60251176  0.75655783  0.20648261    -0.10900
C397        C  0.58144990  0.77082117  0.22352750    -0.01000
C398        C  0.57794121  0.75659324  0.24628356    -0.06100
H399        H  0.63237840  0.69271776  0.23975506     0.06300
H400        H  0.56744940  0.79281267  0.21902092     0.09700
Br401      Br  0.57318836  0.65185483  0.25702113    -0.05800
Br402      Br  0.62773510  0.75145235  0.34331768    -0.02800
Br403      Br  0.65010968  0.70725113  0.18997592     0.00100
Br404      Br  0.54694974  0.77622754  0.26812169    -0.04300
C405        C  0.31216165  0.30677334  0.38865593    -0.11700
C406        C  0.30963457  0.28717095  0.36782302     0.03800
C407        C  0.29584492  0.25558584  0.36923588    -0.12200
C408        C  0.28446569  0.24303777  0.39119026     0.18600
C409        C  0.28627720  0.26288915  0.41191866    -0.09300
C410        C  0.29980965  0.29466012  0.41048247    -0.02200
H411        H  0.29434771  0.24053872  0.35318164     0.05200
C412        C  0.27196172  0.20875867  0.39208404     0.20600
H413        H  0.30169555  0.30951532  0.42660974     0.10300
C414        C  0.29084274  0.18444014  0.40363308    -0.15600
C415        C  0.28087802  0.15131622  0.40364597     0.03300
C416        C  0.25144488  0.14193547  0.39155562    -0.10900
C417        C  0.23242826  0.16671227  0.38031325    -0.01000
C418        C  0.24240054  0.19975790  0.38053361    -0.06100
H419        H  0.31365986  0.19129450  0.41256629     0.06300
H420        H  0.20962446  0.16045974  0.37115535     0.09700
Br421      Br  0.27068918  0.24760660  0.44248376    -0.05800
Br422      Br  0.32357322  0.30277584  0.33687928    -0.02800
Br423      Br  0.30863555  0.12102800  0.42102534     0.00100
Br424      Br  0.21447581  0.23189708  0.36526886    -0.04300
C425        C  0.25646447  0.41254446  0.20434399    -0.11700
C426        C  0.28637124  0.39615687  0.20977304     0.03800
C427        C  0.29887977  0.39686068  0.23317138    -0.12200
C428        C  0.28204626  0.41367481  0.25143964     0.18600
C429        C  0.25249683  0.43061010  0.24595145    -0.09300
C430        C  0.23968967  0.42955790  0.22257987    -0.02200
H431        H  0.32150721  0.38362934  0.23726961     0.05200
C432        C  0.29556990  0.41256309  0.27611168     0.20600
H433        H  0.21678201  0.44233690  0.21856658     0.10300
C434        C  0.32578319  0.42826751  0.28109380    -0.15600
C435        C  0.34002280  0.42635929  0.30399561     0.03300
C436        C  0.32372768  0.40882467  0.32232493    -0.10900
C437        C  0.29346141  0.39332906  0.31738100    -0.01000
C438        C  0.27963971  0.39454079  0.29439073    -0.06100
H439        H  0.33836797  0.44190232  0.26707896     0.06300
H440        H  0.28114527  0.37915939  0.33125194     0.09700
Br441      Br  0.22937989  0.45617814  0.26959856    -0.05800
Br442      Br  0.30981653  0.37026383  0.18642728    -0.02800
Br443      Br  0.38100472  0.44897763  0.30965107     0.00100
Br444      Br  0.24034012  0.36920682  0.28843663    -0.04300
C445        C  0.41232853  0.47767923  0.39039605    -0.11700
C446        C  0.44448365  0.47707817  0.40029374     0.03800
C447        C  0.46366600  0.50566276  0.40025456    -0.12200
C448        C  0.45151373  0.53510198  0.39044796     0.18600
C449        C  0.41910632  0.53619070  0.38123912    -0.09300
C450        C  0.39955862  0.50757535  0.38149383    -0.02200
H451        H  0.48858292  0.50476895  0.40744833     0.05200
C452        C  0.47462874  0.56306976  0.38834198     0.20600
H453        H  0.37482762  0.50839188  0.37399268     0.10300
C454        C  0.49175378  0.56714294  0.36669286    -0.15600
C455        C  0.51960106  0.58750250  0.36551675     0.03300
C456        C  0.53041552  0.60438001  0.38622230    -0.10900
C457        C  0.51169130  0.60235721  0.40736135    -0.01000
C458        C  0.48414728  0.58150945  0.40861662    -0.06100
H459        H  0.48456971  0.55295158  0.35103602     0.06300
H460        H  0.51974458  0.61529950  0.42336132     0.09700
Br461      Br  0.40104517  0.57597217  0.36790905    -0.05800
Br462      Br  0.46339753  0.43827968  0.41474656    -0.02800
Br463      Br  0.54230747  0.59090892  0.33537041     0.00100
Br464      Br  0.46160720  0.57708224  0.43871761    -0.04300
C465        C  0.44109245  0.12305734  0.95427850    -0.11700
C466        C  0.40859566  0.11379368  0.96047971     0.03800
C467        C  0.40148386  0.10430636  0.98402711    -0.12200
C468        C  0.42637182  0.10361232  0.00157068     0.18600
C469        C  0.45903370  0.11202732  0.99523363    -0.09300
C470        C  0.46604221  0.12221995  0.97179738    -0.02200
H471        H  0.37632483  0.09784004  0.98877503     0.05200
C472        C  0.41742816  0.09430463  0.02635057     0.20600
H473        H  0.49120821  0.12869087  0.96707344     0.10300
C474        C  0.40626889  0.06210777  0.03097821    -0.15600
C475        C  0.39598383  0.05290066  0.05400588     0.03300
C476        C  0.39717998  0.07609236  0.07286713    -0.10900
C477        C  0.40857981  0.10820761  0.06821772    -0.01000
C478        C  0.41807978  0.11760389  0.04510525    -0.06100
H479        H  0.40542215  0.04415178  0.01657779     0.06300
H480        H  0.40895282  0.12642983  0.08245299     0.09700
Br481      Br  0.49504683  0.10846979  0.01758481    -0.05800
Br482      Br  0.37261594  0.11551032  0.93794414    -0.02800
Br483      Br  0.38179936  0.00813172  0.05882083     0.00100
Br484      Br  0.42935429  0.16308943  0.03972665    -0.04300
C485        C  0.68564610  0.87767167  0.95805080    -0.11700
C486        C  0.70864717  0.87561791  0.97721651     0.03800
C487        C  0.69758054  0.86853017  0.00043009    -0.12200
C488        C  0.66402337  0.86299100  0.00502262     0.18600
C489        C  0.64102039  0.86521188  0.98617573    -0.09300
C490        C  0.65186311  0.87260358  0.96295700    -0.02200
H491        H  0.71539834  0.86621747  0.01489168     0.05200
C492        C  0.65395833  0.85225149  0.02920647     0.20600
H493        H  0.63378170  0.87385629  0.94861146     0.10300
C494        C  0.64361182  0.87567718  0.04615034    -0.15600
C495        C  0.63469310  0.86595071  0.06941537     0.03300
C496        C  0.63605675  0.83222983  0.07585309    -0.10900
C497        C  0.64607960  0.80891290  0.05864182    -0.01000
C498        C  0.65518570  0.81868831  0.03555966    -0.06100
H499        H  0.64244950  0.90154365  0.04123302     0.06300
H500        H  0.64743866  0.78295025  0.06328585     0.09700
Br501      Br  0.59483210  0.85689344  0.99124878    -0.05800
Br502      Br  0.75568913  0.87923644  0.97305356    -0.02800
Br503      Br  0.61922386  0.89945090  0.09104826     0.00100
Br504      Br  0.66945968  0.78542642  0.01329195    -0.04300
C505        C  0.66823642  0.97593118  0.88414925    -0.11700
C506        C  0.64278688  0.98148355  0.86719944     0.03800
C507        C  0.62386123  0.01023401  0.86853157    -0.12200
C508        C  0.62966892  0.03361370  0.88654153     0.18600
C509        C  0.65604899  0.02911713  0.90264289    -0.09300
C510        C  0.67538967  0.00053797  0.90120238    -0.02200
H511        H  0.60350168  0.01371560  0.85609710     0.05200
C512        C  0.60471235  0.05948650  0.89020984     0.20600
H513        H  0.69492899  0.99678564  0.91425729     0.10300
C514        C  0.57946791  0.05328026  0.90680602    -0.15600
C515        C  0.55163682  0.07356001  0.90774528     0.03300
C516        C  0.54923114  0.10088747  0.89223395    -0.10900
C517        C  0.57538922  0.10833430  0.87663616    -0.01000
C518        C  0.60292484  0.08746525  0.87527842    -0.06100
H519        H  0.58065391  0.03157938  0.91818868     0.06300
H520        H  0.57349352  0.12922683  0.86453177     0.09700
Br521      Br  0.66528696  0.06058697  0.92748683    -0.05800
Br522      Br  0.63228399  0.95097918  0.84188194    -0.02800
Br523      Br  0.51708817  0.06238565  0.92993975     0.00100
Br524      Br  0.63644592  0.09673128  0.85191115    -0.04300
C525        C  0.67828636  0.56138708  0.57302410    -0.11700
C526        C  0.67159882  0.59444269  0.56673150     0.03800
C527        C  0.66142537  0.60213771  0.54338099    -0.12200
C528        C  0.65724753  0.57726436  0.52609269     0.18600
C529        C  0.66321554  0.54410576  0.53255241    -0.09300
C530        C  0.67402842  0.53644911  0.55581535    -0.02200
H531        H  0.65742804  0.62775960  0.53852060     0.05200
C532        C  0.64878082  0.58683347  0.50113624     0.20600
H533        H  0.67898986  0.51095067  0.56052333     0.10300
C534        C  0.67219959  0.58190044  0.48290027    -0.15600
C535        C  0.66634538  0.59306624  0.45948323     0.03300
C536        C  0.63657033  0.60971800  0.45401661    -0.10900
C537        C  0.61305454  0.61439345  0.47225194    -0.01000
C538        C  0.61885282  0.60298235  0.49559846    -0.06100
H539        H  0.69557362  0.57010270  0.48708223     0.06300
H540        H  0.58999506  0.62694575  0.46831431     0.09700
Br541      Br  0.65610794  0.50848963  0.51042488    -0.05800
Br542      Br  0.67843333  0.63023148  0.58879980    -0.02800
Br543      Br  0.70117623  0.58740222  0.43642085     0.00100
Br544      Br  0.58493332  0.60952931  0.51919465    -0.04300
C545        C  0.43464337  0.32537379  0.57347381    -0.11700
C546        C  0.40314774  0.33783905  0.56736795     0.03800
C547        C  0.39689664  0.34831882  0.54383261    -0.12200
C548        C  0.42167234  0.34670704  0.52625276     0.18600
C549        C  0.45345720  0.33550287  0.53259844    -0.09300
C550        C  0.45958339  0.32454636  0.55597272    -0.02200
H551        H  0.37237450  0.35693857  0.53904931     0.05200
C552        C  0.41346646  0.35557697  0.50122671     0.20600
H553        H  0.48402756  0.31550187  0.56055357     0.10300
C554        C  0.40757280  0.38874028  0.49531151    -0.15600
C555        C  0.39845110  0.39767546  0.47194153     0.03300
C556        C  0.39506840  0.37312924  0.45414377    -0.10900
C557        C  0.40168658  0.34007939  0.45996995    -0.01000
C558        C  0.41045155  0.33112582  0.48336138    -0.06100
H559        H  0.41004973  0.40768591  0.50893168     0.06300
H560        H  0.39881463  0.32099476  0.44648852     0.09700
Br561      Br  0.48930523  0.33520003  0.51004199    -0.05800
Br562      Br  0.36714642  0.33859785  0.58980910    -0.02800
Br563      Br  0.39235020  0.44375454  0.46500788     0.00100
Br564      Br  0.41613520  0.28502603  0.49036524    -0.04300
C565        C  0.47704641  0.25161406  0.70393244    -0.11700
C566        C  0.50237709  0.22818176  0.70823882     0.03800
C567        C  0.50514502  0.21325893  0.73083021    -0.12200
C568        C  0.48297809  0.22119234  0.74922529     0.18600
C569        C  0.45848513  0.24526064  0.74526185    -0.09300
C570        C  0.45573712  0.26030828  0.72280458    -0.02200
H571        H  0.52434772  0.19506748  0.73397610     0.05200
C572        C  0.48498314  0.20382486  0.77240090     0.20600
H573        H  0.43616962  0.27818457  0.71991271     0.10300
C574        C  0.50813375  0.21412243  0.78956243    -0.15600
C575        C  0.50739675  0.20134032  0.81290959     0.03300
C576        C  0.48295879  0.17795529  0.81926538    -0.10900
C577        C  0.46137749  0.16608984  0.80144844    -0.01000
C578        C  0.46221988  0.17884630  0.77819201    -0.06100
H579        H  0.52614799  0.23290521  0.78497683     0.06300
H580        H  0.44270254  0.14788091  0.80585292     0.09700
Br581      Br  0.42793613  0.25792792  0.76997320    -0.05800
Br582      Br  0.53457412  0.21614410  0.68450310    -0.02800
Br583      Br  0.54069718  0.21634540  0.83497033     0.00100
Br584      Br  0.43085773  0.16253659  0.75517087    -0.04300
C585        C  0.54353673  0.33750906  0.63535211    -0.11700
C586        C  0.57498474  0.32281542  0.63861889     0.03800
C587        C  0.60349859  0.34263774  0.63864387    -0.12200
C588        C  0.60109466  0.37689335  0.63533096     0.18600
C589        C  0.56994110  0.39128532  0.63120438    -0.09300
C590        C  0.54161018  0.37170844  0.63134421    -0.02200
H591        H  0.62742866  0.33149615  0.64199899     0.05200
C592        C  0.63038864  0.39829557  0.63807026     0.20600
H593        H  0.51782307  0.38343166  0.62850206     0.10300
C594        C  0.64997005  0.40565689  0.61799788    -0.15600
C595        C  0.67217527  0.43227115  0.61853756     0.03300
C596        C  0.67426157  0.45220813  0.63927908    -0.10900
C597        C  0.65654929  0.44304877  0.65987657    -0.01000
C598        C  0.63509888  0.41605108  0.65949266    -0.06100
H599        H  0.64643345  0.39205702  0.60144474     0.06300
H600        H  0.65832739  0.45783448  0.67604155     0.09700
Br601      Br  0.56478831  0.43792724  0.62601577    -0.05800
Br602      Br  0.58049973  0.27659616  0.64502701    -0.02800
Br603      Br  0.69588183  0.44253655  0.58965855     0.00100
Br604      Br  0.61055253  0.40589395  0.68802399    -0.04300
C605        C  0.82580640  0.63910795  0.88922388    -0.11700
C606        C  0.79326363  0.64632968  0.88177130     0.03800
C607        C  0.78135416  0.67869131  0.88351174    -0.12200
C608        C  0.80143985  0.70402216  0.89259431     0.18600
C609        C  0.83367431  0.69675140  0.90045880    -0.09300
C610        C  0.84570605  0.66454036  0.89852913    -0.02200
H611        H  0.75652302  0.68427391  0.87737951     0.05200
C612        C  0.78833517  0.73791945  0.89347438     0.20600
H613        H  0.87063091  0.65924710  0.90460505     0.10300
C614        C  0.76419002  0.74580394  0.91058832    -0.15600
C615        C  0.75009166  0.77730938  0.91114645     0.03300
C616        C  0.76032477  0.80128241  0.89445638    -0.10900
C617        C  0.78495465  0.79368367  0.87769047    -0.01000
C618        C  0.79879660  0.76208540  0.87694135    -0.06100
H619        H  0.75615009  0.72732046  0.92338478     0.06300
H620        H  0.79250916  0.81198237  0.86459057     0.09700
Br621      Br  0.86176276  0.72984160  0.91440880    -0.05800
Br622      Br  0.76492886  0.61370734  0.86755385    -0.02800
Br623      Br  0.71747696  0.78683227  0.93520541     0.00100
Br624      Br  0.83039300  0.75250958  0.85220943    -0.04300
C625        C  0.89679687  0.56392698  0.95514818    -0.11700
C626        C  0.87556440  0.55955563  0.97520156     0.03800
C627        C  0.88671133  0.56759323  0.99826372    -0.12200
C628        C  0.91863895  0.57986873  0.00198549     0.18600
C629        C  0.94028195  0.58294804  0.98239969    -0.09300
C630        C  0.92929913  0.57514325  0.95927261    -0.02200
H631        H  0.87005219  0.56503918  0.01338119     0.05200
C632        C  0.92814647  0.59107019  0.02624277     0.20600
H633        H  0.94630109  0.57822078  0.94442925     0.10300
C634        C  0.93496136  0.56775674  0.04419719    -0.15600
C635        C  0.94301566  0.57779203  0.06756838     0.03300
C636        C  0.94424985  0.61186083  0.07320576    -0.10900
C637        C  0.93748094  0.63501508  0.05501015    -0.01000
C638        C  0.92920763  0.62491276  0.03181870    -0.06100
H639        H  0.93404662  0.54164125  0.03997300     0.06300
H640        H  0.93777545  0.66122662  0.05894938     0.09700
Br641      Br  0.98500469  0.59783227  0.98647118    -0.05800
Br642      Br  0.83077328  0.54386044  0.97303498    -0.02800
Br643      Br  0.95318491  0.54373344  0.09043324     0.00100
Br644      Br  0.91800269  0.65820900  0.00861890    -0.04300
C645        C  0.83607346  0.53484185  0.81856347    -0.11700
C646        C  0.81582426  0.50774309  0.81212439    -0.01000
C647        C  0.80248352  0.50574583  0.78895927    -0.12200
C648        C  0.80929627  0.53003262  0.77174239     0.18600
C649        C  0.83052068  0.55635641  0.77776386    -0.09300
C650        C  0.84382648  0.55850625  0.80096385    -0.02200
H651        H  0.78644377  0.48524503  0.78438318     0.05200
C652        C  0.79204562  0.52876813  0.74827689     0.20600
H653        H  0.85930994  0.57944052  0.80549398     0.10300
C654        C  0.75843758  0.53702931  0.74732940    -0.15600
C655        C  0.74120145  0.53759524  0.72551043     0.03300
C656        C  0.75786008  0.52992629  0.70378622    -0.10900
C657        C  0.79138844  0.52040155  0.70507873    -0.01000
C658        C  0.80837017  0.51962285  0.72702716    -0.06100
H659        H  0.74558724  0.54349628  0.76373567     0.06300
H660        H  0.80474680  0.51392879  0.68890750     0.09700
Br661      Br  0.84045981  0.59090831  0.75530679    -0.05800
Br662      Br  0.80644286  0.47191915  0.83369518    -0.02800
Br663      Br  0.69510171  0.54900783  0.72737643     0.00100
Br664      Br  0.85370220  0.50557231  0.72724203    -0.04300
C665        C  0.37653619  0.19710574  0.88369483    -0.11700
C666        C  0.35407868  0.19232972  0.86457867     0.03800
C667        C  0.32219966  0.20553500  0.86599964    -0.12200
C668        C  0.31225237  0.22357410  0.88619693     0.18600
C669        C  0.33489398  0.22929181  0.90492918    -0.09300
C670        C  0.36687091  0.21623447  0.90351557    -0.02200
H671        H  0.30497028  0.20152816  0.85136969     0.05200
C672        C  0.27796370  0.23581088  0.88743335     0.20600
H673        H  0.38384498  0.22009362  0.91831984     0.10300
C674        C  0.25490231  0.21897502  0.90164584    -0.15600
C675        C  0.22184736  0.22922456  0.90260202     0.03300
C676        C  0.21143574  0.25690058  0.88898437    -0.10900
C677        C  0.23494840  0.27379233  0.87495044    -0.01000
C678        C  0.26787240  0.26343580  0.87406934    -0.06100
H679        H  0.26271089  0.19769992  0.91203093     0.06300
H680        H  0.22771926  0.29510754  0.86440380     0.09700
Br681      Br  0.32305031  0.25456738  0.93274854    -0.05800
Br682      Br  0.36587478  0.16917717  0.83572187    -0.02800
Br683      Br  0.19307223  0.20495124  0.92359703     0.00100
Br684      Br  0.29839901  0.28797874  0.85465409    -0.04300
C685        C  0.13407469  0.32596025  0.95584440    -0.11700
C686        C  0.13936853  0.30438026  0.97554692     0.03800
C687        C  0.14721567  0.31730166  0.99813414    -0.12200
C688        C  0.14992852  0.35142719  0.00177251     0.18600
C689        C  0.14433483  0.37300177  0.98237160    -0.09300
C690        C  0.13650944  0.36024036  0.95970288    -0.02200
H691        H  0.15202099  0.30053210  0.01291011     0.05200
C692        C  0.16077874  0.36367135  0.02556419     0.20600
H693        H  0.13238883  0.37729664  0.94500611     0.10300
C694        C  0.19216656  0.37799170  0.02777929    -0.15600
C695        C  0.20457191  0.38765194  0.05017210     0.03300
C696        C  0.18530164  0.38281032  0.07116331    -0.10900
C697        C  0.15351550  0.36894088  0.06867030    -0.01000
C698        C  0.14128210  0.35937342  0.04621710    -0.06100
H699        H  0.20743591  0.38105638  0.01195688     0.06300
H700        H  0.13805059  0.36516782  0.08429293     0.09700
Br701      Br  0.14666660  0.42006916  0.98608825    -0.05800
Br702      Br  0.13857448  0.25701393  0.97307117    -0.02800
Br703      Br  0.24838546  0.40609675  0.05017785     0.00100
Br704      Br  0.09765297  0.34082794  0.04461149    -0.04300
C705        C  0.02628403  0.32917837  0.88896726    -0.11700
C706        C  0.01169501  0.34063493  0.86757906     0.03800
C707        C  0.98490113  0.36236101  0.86861055    -0.12200
C708        C  0.97268279  0.37315896  0.89079511     0.18600
C709        C  0.98544223  0.35957274  0.91215421    -0.09300
C710        C  0.01203474  0.33743949  0.91111574    -0.02200
H711        H  0.97519369  0.37278819  0.85211470     0.05200
C712        C  0.95212339  0.40318023  0.89120937     0.20600
H713        H  0.02330266  0.32889815  0.92766201     0.10300
C714        C  0.91751894  0.40109454  0.89139141    -0.15600
C715        C  0.89803621  0.42979268  0.89028033     0.03300
C716        C  0.91348758  0.46112013  0.88871467    -0.10900
C717        C  0.94823442  0.46272597  0.88888284    -0.01000
C718        C  0.96743543  0.43426909  0.89016497    -0.06100
H719        H  0.90569516  0.37710159  0.89208238     0.06300
H720        H  0.96077411  0.48635171  0.88809990     0.09700
Br721      Br  0.96976490  0.37353954  0.94301305    -0.05800
Br722      Br  0.02898791  0.32886859  0.83665976    -0.02800
Br723      Br  0.85090114  0.42411680  0.88990901     0.00100
Br724      Br  0.01472081  0.43911733  0.89022605    -0.04300
C725        C  0.20457384  0.17929225  0.64035604    -0.11700
C726        C  0.21260379  0.21041166  0.63027427     0.03800
C727        C  0.24532548  0.22174448  0.63104359    -0.12200
C728        C  0.27037007  0.20273359  0.64163020     0.18600
C729        C  0.26256560  0.17208426  0.65188613    -0.09300
C730        C  0.23003441  0.16060817  0.65116310    -0.02200
H731        H  0.25135851  0.24550238  0.62322190     0.05200
C732        C  0.30447024  0.21554562  0.64203165     0.20600
H733        H  0.22475176  0.13683441  0.65921992     0.10300
C734        C  0.31413145  0.23643245  0.66076532    -0.15600
C735        C  0.34581162  0.25023265  0.66123137     0.03300
C736        C  0.36832908  0.24346439  0.64241333    -0.10900
C737        C  0.35886739  0.22148785  0.62412260    -0.01000
C738        C  0.32717236  0.20758522  0.62382755    -0.06100
H739        H  0.29688944  0.24203297  0.67507933     0.06300
H740        H  0.37581155  0.21581318  0.60964944     0.09700
Br741      Br  0.29557363  0.14517583  0.66714094    -0.05800
Br742      Br  0.18092663  0.23870099  0.61478736    -0.02800
Br743      Br  0.35703391  0.27672404  0.68869566     0.00100
Br744      Br  0.31552518  0.17840557  0.59804249    -0.04300
C745        C  0.12782537  0.10896798  0.57217196    -0.11700
C746        C  0.12774389  0.13138429  0.55257269     0.03800
C747        C  0.13529872  0.12012879  0.52949007    -0.12200
C748        C  0.14335725  0.08700658  0.52538852     0.18600
C749        C  0.14290589  0.06451906  0.54459144    -0.09300
C750        C  0.13505101  0.07549709  0.56770358    -0.02200
H751        H  0.13619622  0.13759620  0.51475851     0.05200
C752        C  0.15585521  0.07736372  0.50154719     0.20600
H753        H  0.13513505  0.05780338  0.58228682     0.10300
C754        C  0.19010405  0.07520296  0.49824507    -0.15600
C755        C  0.20348394  0.06832274  0.47568061     0.03300
C756        C  0.18222844  0.06276112  0.45588094    -0.10900
C757        C  0.14778890  0.06491081  0.45936300    -0.01000
C758        C  0.13457224  0.07240108  0.48192064    -0.06100
H759        H  0.20656114  0.07986124  0.51323750     0.06300
H760        H  0.13101922  0.06103733  0.44444433     0.09700
Br761      Br  0.15359741  0.01877160  0.54003243    -0.05800
Br762      Br  0.12042701  0.17812327  0.55575221    -0.02800
Br763      Br  0.25085658  0.06997054  0.47312077     0.00100
Br764      Br  0.08746360  0.07598231  0.48510214    -0.04300
C765        C  0.10661538  0.25444572  0.82191088    -0.11700
C766        C  0.11266747  0.27240994  0.80048549     0.03800
C767        C  0.11108802  0.25633107  0.77821212    -0.12200
C768        C  0.10320196  0.22265528  0.77663241     0.18600
C769        C  0.09642428  0.20496317  0.79777273    -0.09300
C770        C  0.09813968  0.22078914  0.82002455    -0.02200
H771        H  0.11629364  0.27014269  0.76197861     0.05200
C772        C  0.10311072  0.20606838  0.75291444     0.20600
H773        H  0.09315297  0.20635904  0.83599297     0.10300
C774        C  0.12688968  0.18168941  0.74811933    -0.15600
C775        C  0.12782073  0.16549249  0.72592327     0.03300
C776        C  0.10463293  0.17382075  0.70787069    -0.10900
C777        C  0.08085316  0.19830182  0.71278641    -0.01000
C778        C  0.07989442  0.21429436  0.73504069    -0.06100
H779        H  0.14510915  0.17551254  0.76167985     0.06300
H780        H  0.06290637  0.20515034  0.69920920     0.09700
Br781      Br  0.08411007  0.15917176  0.79715777    -0.05800
Br782      Br  0.12281967  0.31877852  0.79980641    -0.02800
Br783      Br  0.16288515  0.13413729  0.72111119     0.00100
Br784      Br  0.04596701  0.24665822  0.74033534    -0.04300
C785        C  0.81513925  0.79888116  0.63390179    -0.11700
C786        C  0.78859441  0.78951233  0.61876735     0.03800
C787        C  0.77670658  0.75700657  0.61943164    -0.12200
C788        C  0.79078572  0.73358726  0.63491694     0.18600
C789        C  0.81729582  0.74269642  0.64979131    -0.09300
C790        C  0.82921749  0.77501693  0.64921186    -0.02200
H791        H  0.75645769  0.74989878  0.60777001     0.05200
C792        C  0.77777897  0.69959961  0.63527774     0.20600
H793        H  0.84954184  0.78150687  0.66098590     0.10300
C794        C  0.78850774  0.67700618  0.61790815    -0.15600
C795        C  0.77735583  0.64426550  0.61813363     0.03300
C796        C  0.75495723  0.63378378  0.63607033    -0.10900
C797        C  0.74413229  0.65676914  0.65331034    -0.01000
C798        C  0.75540254  0.68937189  0.65304940    -0.06100
H799        H  0.80563529  0.68491965  0.60412544     0.06300
H800        H  0.72690693  0.64934760  0.66717356     0.09700
Br801      Br  0.83816508  0.71164959  0.67102103    -0.05800
Br802      Br  0.76847157  0.81896499  0.59597554    -0.02800
Br803      Br  0.79232399  0.61602859  0.59266828     0.00100
Br804      Br  0.73952150  0.71918300  0.67722335    -0.04300
C805        C  0.89123960  0.87670110  0.57058434    -0.11700
C806        C  0.87096240  0.87643150  0.54976733     0.03800
C807        C  0.88471335  0.86870097  0.52745248    -0.12200
C808        C  0.91825414  0.86082709  0.52527113     0.18600
C809        C  0.93862459  0.86129800  0.54569899    -0.09300
C810        C  0.92513232  0.86926823  0.56808827    -0.02200
H811        H  0.86893823  0.86799351  0.51171369     0.05200
C812        C  0.93084648  0.85053131  0.50161326     0.20600
H813        H  0.94123238  0.86923353  0.58364440     0.10300
C814        C  0.94115532  0.87454225  0.48511460    -0.15600
C815        C  0.95030460  0.86566631  0.46174170     0.03300
C816        C  0.94905575  0.83217034  0.45465115    -0.10900
C817        C  0.93975183  0.80815390  0.47158200    -0.01000
C818        C  0.93045895  0.81711134  0.49481647    -0.06100
H819        H  0.94162487  0.90031330  0.49035908     0.06300
H820        H  0.93848337  0.78235211  0.46648429     0.09700
Br821      Br  0.98474259  0.85043400  0.54381188    -0.05800
Br822      Br  0.82403780  0.88420655  0.55007579    -0.02800
Br823      Br  0.96519642  0.90019885  0.44074035     0.00100
Br824      Br  0.91593603  0.78309244  0.51637182    -0.04300
C825        C  0.81409017  0.89835812  0.70318096    -0.11700
C826        C  0.78199482  0.91115631  0.70773299     0.03800
C827        C  0.76925933  0.91063871  0.73109527    -0.12200
C828        C  0.78769642  0.89757010  0.75013162     0.18600
C829        C  0.81946201  0.88493408  0.74581377    -0.09300
C830        C  0.83243199  0.88552213  0.72259816    -0.02200
H831        H  0.74470851  0.92035063  0.73445099     0.05200
C832        C  0.77329374  0.89698365  0.77440682     0.20600
H833        H  0.85694003  0.87543476  0.71977172     0.10300
C834        C  0.75517583  0.86929471  0.78173282    -0.15600
C835        C  0.74205684  0.86743618  0.80492091     0.03300
C836        C  0.74693252  0.89384362  0.82115854    -0.10900
C837        C  0.76514890  0.92155178  0.81366067    -0.01000
C838        C  0.77816808  0.92330902  0.79045370    -0.06100
H839        H  0.75176177  0.84879286  0.76947297     0.06300
H840        H  0.76922613  0.94197309  0.82587895     0.09700
Br841      Br  0.84578650  0.86623841  0.77109850    -0.05800
Br842      Br  0.75359386  0.92946280  0.68342503    -0.02800
Br843      Br  0.72013964  0.82711804  0.81373949     0.00100
Br844      Br  0.80277595  0.96185104  0.78140213    -0.04300
C845        C  0.02457272  0.09485742  0.63833120    -0.11700
C846        C  0.02244579  0.06486328  0.62559595     0.03800
C847        C  0.99306054  0.04690644  0.62572688    -0.12200
C848        C  0.96541313  0.05815052  0.63848459     0.18600
C849        C  0.96720601  0.08843826  0.65089915    -0.09300
C850        C  0.99663261  0.10683462  0.65048619    -0.02200
H851        H  0.99201047  0.02351739  0.61628328     0.05200
C852        C  0.93647052  0.03595336  0.64001734     0.20600
H853        H  0.99809567  0.12981759  0.66039560     0.10300
C854        C  0.93049552  0.01930430  0.66166795    -0.15600
C855        C  0.90938524  0.99197085  0.66233190     0.03300
C856        C  0.89396945  0.98096843  0.64109159    -0.10900
C857        C  0.89754690  0.99940692  0.61994112    -0.01000
C858        C  0.91882675  0.02665439  0.61924725    -0.06100
H859        H  0.94385040  0.02630003  0.67775711     0.06300
H860        H  0.88562926  0.99126602  0.60354597     0.09700
Br861      Br  0.93038390  0.10517953  0.66882421    -0.05800
Br862      Br  0.05883701  0.04737374  0.60742847    -0.02800
Br863      Br  0.90297850  0.96988765  0.69248801     0.00100
Br864      Br  0.92478016  0.04916130  0.58923679    -0.04300
loop_ 
_geom_bond_atom_site_label_1 
_geom_bond_atom_site_label_2 
_geom_bond_distance 
_geom_bond_site_symmetry_2 
_ccdc_geom_bond_type 
O1            V9   1.906       .  S
O1           C11   1.265       .  A
O2            V9   1.904       .  S
O2           C12   1.265       .  A
O3            V9   1.899       .  S
O3           C13   1.263       .  A
O4            V9   1.896       .  S
O4           C14   1.263       .  A
O5           V10   1.902       .  S
O5           C14   1.266       .  A
O6           V10   1.896       .  S
O6           C13   1.265       .  A
O7           V10   1.891       .  S
O7           C12   1.263       .  A
O8           V10   1.891       .  S
O8           C11   1.262       .  A
V9           V10   2.084       .  T
C11         C856   1.471       .  S
C12         C785   1.482       .  S
C13         C825   1.488       .  S
C14         C805   1.487       .  S
O15          V23   1.909       .  S
O15          C25   1.266       .  A
O16          V23   1.908       .  S
O16          C26   1.266       .  A
O17          V23   1.893       .  S
O17          C27   1.262       .  A
O18          V23   1.893       .  S
O18          C28   1.263       .  A
O19          V24   1.906       .  S
O19          C28   1.266       .  A
O20          V24   1.905       .  S
O20          C27   1.267       .  A
O21          V24   1.886       .  S
O21          C26   1.262       .  A
O22          V24   1.887       .  S
O22          C25   1.261       .  A
V23          V24   2.085       .  T
C25         C845   1.470       .  S
C26         C725   1.487       .  S
C27         C745   1.486       .  S
C28         C776   1.483       .  S
O29          V37   1.906       .  S
O29          C39   1.264       .  A
O30          V37   1.904       .  S
O30          C40   1.265       .  A
O31          V37   1.895       .  S
O31          C41   1.262       .  A
O32          V37   1.898       .  S
O32          C42   1.266       .  A
O33          V38   1.904       .  S
O33          C42   1.264       .  A
O34          V38   1.906       .  S
O34          C41   1.267       .  A
O35          V38   1.891       .  S
O35          C40   1.263       .  A
O36          V38   1.889       .  S
O36          C39   1.262       .  A
V37          V38   2.084       .  T
C39         C705   1.466       .  S
C40         C676   1.483       .  S
C41         C685   1.487       .  S
C42         C765   1.491       .  S
O43          V51   1.906       .  S
O43          C53   1.265       .  A
O44          V51   1.905       .  S
O44          C54   1.266       .  A
O45          V51   1.896       .  S
O45          C55   1.263       .  A
O46          V51   1.895       .  S
O46          C56   1.262       .  A
O47          V52   1.904       .  S
O47          C56   1.267       .  A
O48          V52   1.909       .  S
O48          C55   1.267       .  A
O49          V52   1.888       .  S
O49          C54   1.261       .  A
O50          V52   1.886       .  S
O50          C53   1.263       .  A
V51          V52   2.084       .  T
C53         C716   1.482       .  S
C54         C605   1.472       .  S
C55         C645   1.484       .  S
C56         C625   1.489       .  S
O57          V65   1.908       .  S
O57          C67   1.265       .  A
O58          V65   1.909       .  S
O58          C68   1.267       .  A
O59          V65   1.895       .  S
O59          C69   1.263       .  A
O60          V65   1.895       .  S
O60          C70   1.262       .  A
O61          V66   1.900       .  S
O61          C70   1.266       .  A
O62          V66   1.902       .  S
O62          C69   1.264       .  A
O63          V66   1.889       .  S
O63          C68   1.261       .  A
O64          V66   1.891       .  S
O64          C67   1.264       .  A
V65          V66   2.086       .  T
C67         C585   1.480       .  S
C68         C736   1.479       .  S
C69         C545   1.473       .  S
C70         C565   1.478       .  S
O71          V79   1.907       .  S
O71          C81   1.265       .  A
O72          V79   1.905       .  S
O72          C82   1.266       .  A
O73          V79   1.906       .  S
O73          C83   1.267       .  A
O74          V79   1.901       .  S
O74          C84   1.264       .  A
O75          V80   1.902       .  S
O75          C84   1.264       .  A
O76          V80   1.898       .  S
O76          C83   1.263       .  A
O77          V80   1.891       .  S
O77          C82   1.263       .  A
O78          V80   1.893       .  S
O78          C81   1.263       .  A
V79          V80   2.086       .  T
C81         C596   1.474       .  S
C82         C796   1.480       .  S
C83         C656   1.493       .  S
C84         C525   1.472       .  S
O85          V93   1.899       .  S
O85          C95   1.264       .  A
O86          V93   1.898       .  S
O86          C96   1.263       .  A
O87          V93   1.898       .  S
O87          C97   1.264       .  A
O88          V93   1.899       .  S
O88          C98   1.264       .  A
O89          V94   1.898       .  S
O89          C98   1.265       .  A
O90          V94   1.898       .  S
O90          C97   1.264       .  A
O91          V94   1.890       .  S
O91          C96   1.261       .  A
O92          V94   1.890       .  S
O92          C95   1.262       .  A
V93          V94   2.086       .  T
C95         C505   1.474       .  S
C96         C616   1.460       .  S
C97         C836   1.477       .  S
C98         C485   1.483       .  S
O99         V107   1.900       .  S
O99         C109   1.263       .  A
O100        V107   1.903       .  S
O100        C110   1.265       .  A
O101        V107   1.900       .  S
O101        C111   1.264       .  A
O102        V107   1.899       .  S
O102        C112   1.264       .  A
O103        V108   1.894       .  S
O103        C112   1.264       .  A
O104        V108   1.893       .  S
O104        C111   1.262       .  A
O105        V108   1.890       .  S
O105        C110   1.262       .  A
O106        V108   1.889       .  S
O106        C109   1.262       .  A
V107        V108   2.086       .  T
C109        C516   1.461       .  S
C110        C665   1.473       .  S
C111        C465   1.469       .  S
C112        C576   1.477       .  S
O113        V121   1.906       .  S
O113        C123   1.266       .  A
O114        V121   1.905       .  S
O114        C124   1.266       .  A
O115        V121   1.896       .  S
O115        C125   1.263       .  A
O116        V121   1.898       .  S
O116        C126   1.264       .  A
O117        V122   1.901       .  S
O117        C126   1.264       .  A
O118        V122   1.901       .  S
O118        C125   1.265       .  A
O119        V122   1.892       .  S
O119        C124   1.263       .  A
O120        V122   1.889       .  S
O120        C123   1.262       .  A
V121        V122   2.083       .  T
C123        C445   1.472       .  S
C124        C405   1.471       .  S
C125        C556   1.471       .  S
C126        C436   1.470       .  S
O127        V135   1.903       .  S
O127        C137   1.264       .  A
O128        V135   1.904       .  S
O128        C138   1.265       .  A
O129        V135   1.898       .  S
O129        C139   1.264       .  A
O130        V135   1.897       .  S
O130        C140   1.264       .  A
O131        V136   1.901       .  S
O131        C140   1.265       .  A
O132        V136   1.896       .  S
O132        C139   1.263       .  A
O133        V136   1.895       .  S
O133        C138   1.263       .  A
O134        V136   1.893       .  S
O134        C137   1.263       .  A
V135        V136   2.087       .  T
C137        C456   1.470       .  S
C138        C365   1.478       .  S
C139        C385   1.472       .  S
C140        C536   1.478       .  S
O141        V149   1.908   1_455  S
O141        C151   1.266       .  A
O142        V149   1.907       .  S
O142        C152   1.267       .  A
O143        V149   1.894       .  S
O143        C153   1.262       .  A
O144        V149   1.894       .  S
O144        C154   1.264       .  A
O145        V150   1.903       .  S
O145        C154   1.265       .  A
O146        V150   1.900       .  S
O146        C153   1.265       .  A
O147        V150   1.889       .  S
O147        C152   1.261       .  A
O148        V150   1.887       .  S
O148        C151   1.262   1_655  A
V149        V150   2.085       .  T
C151        C345   1.475       .  S
C152        C316   1.482       .  S
C153        C325   1.477       .  S
C154        C636   1.482       .  S
O155        V163   1.907       .  S
O155        C165   1.264       .  A
O156        V163   1.901       .  S
O156        C166   1.265       .  A
O157        V163   1.898       .  S
O157        C167   1.263       .  A
O158        V163   1.897       .  S
O158        C168   1.263       .  A
O159        V164   1.903       .  S
O159        C168   1.265       .  A
O160        V164   1.902       .  S
O160        C167   1.266       .  A
O161        V164   1.889       .  S
O161        C166   1.262       .  A
O162        V164   1.888       .  S
O162        C165   1.261       .  A
V163        V164   2.085       .  T
C165        C356   1.465       .  S
C166        C296   1.471       .  S
C167        C696   1.490       .  S
C168        C425   1.472       .  S
O169        V177   1.906       .  S
O169        C179   1.265       .  A
O170        V177   1.907       .  S
O170        C180   1.266       .  A
O171        V177   1.900       .  S
O171        C181   1.264       .  A
O172        V177   1.898       .  S
O172        C182   1.265       .  A
O173        V178   1.897       .  S
O173        C182   1.263       .  A
O174        V178   1.896       .  S
O174        C181   1.263       .  A
O175        V178   1.885       .  S
O175        C180   1.262       .  A
O176        V178   1.887       .  S
O176        C179   1.262       .  A
V177        V178   2.084       .  T
C179        C265   1.470   1_545  S
C180        C285   1.481       .  S
C181        C476   1.472       .  S
C182        C245   1.486       .  S
O183        V191   1.908       .  S
O183        C193   1.266       .  A
O184        V191   1.904       .  S
O184        C194   1.266       .  A
O185        V191   1.892       .  S
O185        C195   1.261       .  A
O186        V191   1.890       .  S
O186        C196   1.262       .  A
O187        V192   1.905       .  S
O187        C196   1.266       .  A
O188        V192   1.900       .  S
O188        C195   1.264       .  A
O189        V192   1.892       .  S
O189        C194   1.262       .  A
O190        V192   1.887       .  S
O190        C193   1.262       .  A
V191        V192   2.088       .  T
C193        C276   1.471       .  S
C194        C305   1.478       .  S
C195        C396   1.463       .  S
C196        C496   1.476       .  S
O197        V205   1.907   1_455  S
O197        C207   1.265       .  A
O198        V205   1.905       .  S
O198        C208   1.267       .  A
O199        V205   1.894       .  S
O199        C209   1.264       .  A
O200        V205   1.894       .  S
O200        C210   1.264       .  A
O201        V206   1.902       .  S
O201        C210   1.265       .  A
O202        V206   1.900       .  S
O202        C209   1.264       .  A
O203        V206   1.895       .  S
O203        C208   1.262       .  A
O204        V206   1.891       .  S
O204        C207   1.264   1_655  A
V205        V206   2.085       .  T
C207        C225   1.481       .  S
C208        C376   1.483       .  S
C209        C336   1.485       .  S
C210        C816   1.478       .  S
O211        V219   1.905   1_565  S
O211        C221   1.263       .  A
O212        V219   1.902       .  S
O212        C222   1.264       .  A
O213        V219   1.899       .  S
O213        C223   1.264       .  A
O214        V219   1.901       .  S
O214        C224   1.266       .  A
O215        V220   1.896       .  S
O215        C224   1.263       .  A
O216        V220   1.896       .  S
O216        C223   1.264       .  A
O217        V220   1.896       .  S
O217        C222   1.265       .  A
O218        V220   1.892       .  S
O218        C221   1.262   1_545  A
V219        V220   2.085       .  T
C221        C236   1.465       .  S
C222        C416   1.488       .  S
C223        C756   1.482       .  S
C224        C256   1.488       .  S
C225        C226   1.414       .  A
C225        C230   1.405       .  A
C226        C227   1.403       .  A
C226       Br242   1.919       .  S
C227        C228   1.404       .  A
C227        H231   1.083       .  S
C228        C232   1.480       .  S
C228        C229   1.408       .  A
C229        C230   1.394       .  A
C229       Br241   1.921       .  S
C230        H233   1.083       .  S
C232        C234   1.406       .  A
C232        C238   1.410       .  A
C234        C235   1.402       .  A
C234        H239   1.083       .  S
C235        C236   1.406       .  A
C235       Br243   1.918       .  S
C236        C237   1.399       .  A
C237        C238   1.395       .  A
C237        H240   1.084       .  S
C238       Br244   1.921       .  S
C245        C246   1.417       .  A
C245        C250   1.408       .  A
C246        C247   1.398       .  A
C246       Br262   1.922       .  S
C247        C248   1.401       .  A
C247        H251   1.084       .  S
C248        C252   1.480       .  S
C248        C249   1.407       .  A
C249        C250   1.398       .  A
C249       Br261   1.920   1_545  S
C250        H253   1.083       .  S
C252        C254   1.400       .  A
C252        C258   1.407       .  A
C254        C255   1.398       .  A
C254        H259   1.084       .  S
C255        C256   1.419       .  A
C255       Br263   1.923       .  S
C256        C257   1.409       .  A
C257        C258   1.399       .  A
C257        H260   1.083       .  S
C258       Br264   1.920       .  S
C265        C266   1.410       .  A
C265        C270   1.401       .  A
C266        C267   1.403       .  A
C266       Br282   1.919       .  S
C267        C268   1.404       .  A
C267        H271   1.083       .  S
C268        C272   1.474       .  S
C268        C269   1.407       .  A
C269        C270   1.393       .  A
C269       Br281   1.921       .  S
C270        H273   1.084       .  S
C272        C274   1.403       .  A
C272        C278   1.406       .  A
C274        C275   1.400       .  A
C274        H279   1.083       .  S
C275        C276   1.409       .  A
C275       Br283   1.918       .  S
C276        C277   1.404       .  A
C277        C278   1.396       .  A
C277        H280   1.084       .  S
C278       Br284   1.919       .  S
C285        C286   1.415       .  A
C285        C290   1.408       .  A
C286        C287   1.400       .  A
C286       Br302   1.920       .  S
C287        C288   1.402       .  A
C287        H291   1.083       .  S
C288        C292   1.473       .  S
C288        C289   1.404       .  A
C289        C290   1.393       .  A
C289       Br301   1.920       .  S
C290        H293   1.083       .  S
C292        C294   1.401       .  A
C292        C298   1.407       .  A
C294        C295   1.396       .  A
C294        H299   1.083       .  S
C295        C296   1.411       .  A
C295       Br303   1.922       .  S
C296        C297   1.403       .  A
C297        C298   1.398       .  A
C297        H300   1.083       .  S
C298       Br304   1.919       .  S
C305        C306   1.415       .  A
C305        C310   1.405       .  A
C306        C307   1.398       .  A
C306       Br322   1.922       .  S
C307        C308   1.400       .  A
C307        H311   1.083       .  S
C308        C312   1.473       .  S
C308        C309   1.405       .  A
C309        C310   1.398       .  A
C309       Br321   1.918       .  S
C310        H313   1.082       .  S
C312        C314   1.398       .  A
C312        C318   1.405       .  A
C314        C315   1.398       .  A
C314        H319   1.083       .  S
C315        C316   1.418       .  A
C315       Br323   1.923       .  S
C316        C317   1.407       .  A
C317        C318   1.399       .  A
C317        H320   1.083       .  S
C318       Br324   1.918       .  S
C325        C326   1.415       .  A
C325        C330   1.405       .  A
C326        C327   1.399       .  A
C326       Br342   1.921   1_655  S
C327        C328   1.400       .  A
C327        H331   1.083   1_655  S
C328        C332   1.472       .  S
C328        C329   1.405       .  A
C329        C330   1.396       .  A
C329       Br341   1.919       .  S
C330        H333   1.083       .  S
C332        C334   1.399       .  A
C332        C338   1.402       .  A
C334        C335   1.400       .  A
C334        H339   1.084       .  S
C335        C336   1.418       .  A
C335       Br343   1.922       .  S
C336        C337   1.409       .  A
C337        C338   1.396       .  A
C337        H340   1.083   1_655  S
C338       Br344   1.919   1_655  S
C345        C346   1.412       .  A
C345        C350   1.404       .  A
C346        C347   1.395       .  A
C346       Br362   1.922       .  S
C347        C348   1.401       .  A
C347        H351   1.084       .  S
C348        C352   1.477       .  S
C348        C349   1.408       .  A
C349        C350   1.401       .  A
C349       Br361   1.918       .  S
C350        H353   1.083       .  S
C352        C354   1.402       .  A
C352        C358   1.410       .  A
C354        C355   1.393       .  A
C354        H359   1.084       .  S
C355        C356   1.406       .  A
C355       Br363   1.920       .  S
C356        C357   1.402       .  A
C357        C358   1.402       .  A
C357        H360   1.083       .  S
C358       Br364   1.918       .  S
C365        C366   1.413       .  A
C365        C370   1.405       .  A
C366        C367   1.397       .  A
C366       Br382   1.921       .  S
C367        C368   1.401       .  A
C367        H371   1.084       .  S
C368        C372   1.479       .  S
C368        C369   1.408       .  A
C369        C370   1.401       .  A
C369       Br381   1.919       .  S
C370        H373   1.083       .  S
C372        C374   1.401       .  A
C372        C378   1.407       .  A
C374        C375   1.399       .  A
C374        H379   1.084       .  S
C375        C376   1.416       .  A
C375       Br383   1.922       .  S
C376        C377   1.406       .  A
C377        C378   1.400       .  A
C377        H380   1.083       .  S
C378       Br384   1.919       .  S
C385        C386   1.410       .  A
C385        C390   1.404       .  A
C386        C387   1.396       .  A
C386       Br402   1.920       .  S
C387        C388   1.403       .  A
C387        H391   1.083       .  S
C388        C392   1.479       .  S
C388        C389   1.410       .  A
C389        C390   1.398       .  A
C389       Br401   1.920       .  S
C390        H393   1.083       .  S
C392        C394   1.403       .  A
C392        C398   1.411       .  A
C394        C395   1.394       .  A
C394        H399   1.083       .  S
C395        C396   1.406       .  A
C395       Br403   1.920       .  S
C396        C397   1.400       .  A
C397        C398   1.399       .  A
C397        H400   1.084       .  S
C398       Br404   1.919       .  S
C405        C406   1.409       .  A
C405        C410   1.403       .  A
C406        C407   1.397       .  A
C406       Br422   1.921       .  S
C407        C408   1.402       .  A
C407        H411   1.084       .  S
C408        C412   1.478       .  S
C408        C409   1.409       .  A
C409        C410   1.400       .  A
C409       Br421   1.918       .  S
C410        H413   1.084       .  S
C412        C414   1.401       .  A
C412        C418   1.405       .  A
C414        C415   1.400       .  A
C414        H419   1.084       .  S
C415        C416   1.418       .  A
C415       Br423   1.922       .  S
C416        C417   1.409       .  A
C417        C418   1.397       .  A
C417        H420   1.083       .  S
C418       Br424   1.919       .  S
C425        C426   1.411       .  A
C425        C430   1.403       .  A
C426        C427   1.397       .  A
C426       Br442   1.921       .  S
C427        C428   1.401       .  A
C427        H431   1.084       .  S
C428        C432   1.479       .  S
C428        C429   1.410       .  A
C429        C430   1.401       .  A
C429       Br441   1.919       .  S
C430        H433   1.083       .  S
C432        C434   1.404       .  A
C432        C438   1.409       .  A
C434        C435   1.401       .  A
C434        H439   1.083       .  S
C435        C436   1.408       .  A
C435       Br443   1.919       .  S
C436        C437   1.402       .  A
C437        C438   1.397       .  A
C437        H440   1.084       .  S
C438       Br444   1.920       .  S
C445        C446   1.411       .  A
C445        C450   1.405       .  A
C446        C447   1.393       .  A
C446       Br462   1.922       .  S
C447        C448   1.399       .  A
C447        H451   1.084       .  S
C448        C452   1.473       .  S
C448        C449   1.407       .  A
C449        C450   1.402       .  A
C449       Br461   1.916       .  S
C450        H453   1.083       .  S
C452        C454   1.401       .  A
C452        C458   1.407       .  A
C454        C455   1.397       .  A
C454        H459   1.084       .  S
C455        C456   1.410       .  A
C455       Br463   1.919       .  S
C456        C457   1.403       .  A
C457        C458   1.399       .  A
C457        H460   1.084       .  S
C458       Br464   1.917       .  S
C465        C466   1.410       .  A
C465        C470   1.403       .  A
C466        C467   1.397       .  A
C466       Br482   1.921       .  S
C467        C468   1.402   1_556  A
C467        H471   1.083       .  S
C468        C472   1.476       .  S
C468        C469   1.409   1_554  A
C469        C470   1.398       .  A
C469       Br481   1.919   1_556  S
C470        H473   1.083       .  S
C472        C474   1.403       .  A
C472        C478   1.408       .  A
C474        C475   1.399       .  A
C474        H479   1.083       .  S
C475        C476   1.410       .  A
C475       Br483   1.920       .  S
C476        C477   1.403       .  A
C477        C478   1.396       .  A
C477        H480   1.083       .  S
C478       Br484   1.920       .  S
C485        C486   1.417       .  A
C485        C490   1.408       .  A
C486        C487   1.398   1_556  A
C486       Br502   1.921       .  S
C487        C488   1.399       .  A
C487        H491   1.084       .  S
C488        C492   1.473       .  S
C488        C489   1.404   1_554  A
C489        C490   1.398       .  A
C489       Br501   1.918       .  S
C490        H493   1.083       .  S
C492        C494   1.402       .  A
C492        C498   1.404       .  A
C494        C495   1.402       .  A
C494        H499   1.083       .  S
C495        C496   1.412       .  A
C495       Br503   1.919       .  S
C496        C497   1.405       .  A
C497        C498   1.395       .  A
C497        H500   1.083       .  S
C498       Br504   1.920       .  S
C505        C506   1.413       .  A
C505        C510   1.406   1_565  A
C506        C507   1.394   1_565  A
C506       Br522   1.922       .  S
C507        C508   1.399       .  A
C507        H511   1.084       .  S
C508        C512   1.468       .  S
C508        C509   1.404       .  A
C509        C510   1.398       .  A
C509       Br521   1.917       .  S
C510        H513   1.083   1_545  S
C512        C514   1.400       .  A
C512        C518   1.406       .  A
C514        C515   1.393       .  A
C514        H519   1.084       .  S
C515        C516   1.406       .  A
C515       Br523   1.920       .  S
C516        C517   1.402       .  A
C517        C518   1.399       .  A
C517        H520   1.084       .  S
C518       Br524   1.917       .  S
C525        C526   1.409       .  A
C525        C530   1.403       .  A
C526        C527   1.398       .  A
C526       Br542   1.920       .  S
C527        C528   1.403       .  A
C527        H531   1.084       .  S
C528        C532   1.482       .  S
C528        C529   1.410       .  A
C529        C530   1.401       .  A
C529       Br541   1.918       .  S
C530        H533   1.083       .  S
C532        C534   1.404       .  A
C532        C538   1.408       .  A
C534        C535   1.400       .  A
C534        H539   1.083       .  S
C535        C536   1.412       .  A
C535       Br543   1.921       .  S
C536        C537   1.405       .  A
C537        C538   1.399       .  A
C537        H540   1.083       .  S
C538       Br544   1.919       .  S
C545        C546   1.410       .  A
C545        C550   1.404       .  A
C546        C547   1.400       .  A
C546       Br562   1.920       .  S
C547        C548   1.403       .  A
C547        H551   1.083       .  S
C548        C552   1.476       .  S
C548        C549   1.407       .  A
C549        C550   1.397       .  A
C549       Br561   1.919       .  S
C550        H553   1.084       .  S
C552        C554   1.402       .  A
C552        C558   1.409       .  A
C554        C555   1.400       .  A
C554        H559   1.083       .  S
C555        C556   1.410       .  A
C555       Br563   1.920       .  S
C556        C557   1.402       .  A
C557        C558   1.397       .  A
C557        H560   1.084       .  S
C558       Br564   1.920       .  S
C565        C566   1.415       .  A
C565        C570   1.405       .  A
C566        C567   1.400       .  A
C566       Br582   1.919       .  S
C567        C568   1.399       .  A
C567        H571   1.084       .  S
C568        C572   1.472       .  S
C568        C569   1.406       .  A
C569        C570   1.395       .  A
C569       Br581   1.920       .  S
C570        H573   1.083       .  S
C572        C574   1.400       .  A
C572        C578   1.405       .  A
C574        C575   1.400       .  A
C574        H579   1.084       .  S
C575        C576   1.414       .  A
C575       Br583   1.920       .  S
C576        C577   1.405       .  A
C577        C578   1.395       .  A
C577        H580   1.084       .  S
C578       Br584   1.919       .  S
C585        C586   1.415       .  A
C585        C590   1.404       .  A
C586        C587   1.405       .  A
C586       Br602   1.917       .  S
C587        C588   1.402       .  A
C587        H591   1.083       .  S
C588        C592   1.475       .  S
C588        C589   1.406       .  A
C589        C590   1.393       .  A
C589       Br601   1.921       .  S
C590        H593   1.083       .  S
C592        C594   1.403       .  A
C592        C598   1.406       .  A
C594        C595   1.403       .  A
C594        H599   1.083       .  S
C595        C596   1.412       .  A
C595       Br603   1.919       .  S
C596        C597   1.403       .  A
C597        C598   1.395       .  A
C597        H600   1.084       .  S
C598       Br604   1.919       .  S
C605        C606   1.409       .  A
C605        C610   1.405       .  A
C606        C607   1.399       .  A
C606       Br622   1.919       .  S
C607        C608   1.402       .  A
C607        H611   1.083       .  S
C608        C612   1.471       .  S
C608        C609   1.405       .  A
C609        C610   1.395       .  A
C609       Br621   1.920       .  S
C610        H613   1.084       .  S
C612        C614   1.402       .  A
C612        C618   1.409       .  A
C614        C615   1.397       .  A
C614        H619   1.083       .  S
C615        C616   1.406       .  A
C615       Br623   1.920       .  S
C616        C617   1.400       .  A
C617        C618   1.396       .  A
C617        H620   1.084       .  S
C618       Br624   1.919       .  S
C625        C626   1.420       .  A
C625        C630   1.409       .  A
C626        C627   1.399       .  A
C626       Br642   1.923       .  S
C627        C628   1.398   1_556  A
C627        H631   1.084   1_556  S
C628        C632   1.476       .  S
C628        C629   1.405   1_554  A
C629        C630   1.398       .  A
C629       Br641   1.919       .  S
C630        H633   1.083       .  S
C632        C634   1.402       .  A
C632        C638   1.405       .  A
C634        C635   1.402       .  A
C634        H639   1.084       .  S
C635        C636   1.415       .  A
C635       Br643   1.920       .  S
C636        C637   1.406       .  A
C637        C638   1.395       .  A
C637        H640   1.083       .  S
C638       Br644   1.920       .  S
C645        C646   1.415       .  A
C645        C650   1.406       .  A
C646        C647   1.400       .  A
C646       Br662   1.921       .  S
C647        C648   1.401       .  A
C647        H651   1.084       .  S
C648        C652   1.481       .  S
C648        C649   1.409       .  A
C649        C650   1.402       .  A
C649       Br661   1.919       .  S
C650        H653   1.083       .  S
C652        C654   1.400       .  A
C652        C658   1.405       .  A
C654        C655   1.400       .  A
C654        H659   1.084       .  S
C655        C656   1.420       .  A
C655       Br663   1.922       .  S
C656        C657   1.410       .  A
C657        C658   1.401       .  A
C657        H660   1.083       .  S
C658       Br664   1.918       .  S
C665        C666   1.412       .  A
C665        C670   1.404       .  A
C666        C667   1.397       .  A
C666       Br682   1.921       .  S
C667        C668   1.401       .  A
C667        H671   1.083       .  S
C668        C672   1.473       .  S
C668        C669   1.406       .  A
C669        C670   1.398       .  A
C669       Br681   1.918       .  S
C670        H673   1.083       .  S
C672        C674   1.401       .  A
C672        C678   1.403       .  A
C674        C675   1.400       .  A
C674        H679   1.084       .  S
C675        C676   1.416       .  A
C675       Br683   1.921       .  S
C676        C677   1.408       .  A
C677        C678   1.396       .  A
C677        H680   1.083       .  S
C678       Br684   1.919       .  S
C685        C686   1.418       .  A
C685        C690   1.408       .  A
C686        C687   1.399       .  A
C686       Br702   1.922       .  S
C687        C688   1.400   1_556  A
C687        H691   1.084   1_556  S
C688        C692   1.481       .  S
C688        C689   1.407   1_554  A
C689        C690   1.400       .  A
C689       Br701   1.919       .  S
C690        H693   1.083       .  S
C692        C694   1.400       .  A
C692        C698   1.406       .  A
C694        C695   1.399       .  A
C694        H699   1.084       .  S
C695        C696   1.419       .  A
C695       Br703   1.922       .  S
C696        C697   1.409       .  A
C697        C698   1.399       .  A
C697        H700   1.083       .  S
C698       Br704   1.919       .  S
C705        C706   1.407       .  A
C705        C710   1.403       .  A
C706        C707   1.396   1_455  A
C706       Br722   1.919       .  S
C707        C708   1.401       .  A
C707        H711   1.084       .  S
C708        C712   1.472       .  S
C708        C709   1.407       .  A
C709        C710   1.400   1_655  A
C709       Br721   1.918       .  S
C710        H713   1.084       .  S
C712        C714   1.401       .  A
C712        C718   1.404       .  A
C714        C715   1.404       .  A
C714        H719   1.083       .  S
C715        C716   1.416       .  A
C715       Br723   1.919       .  S
C716        C717   1.406       .  A
C717        C718   1.390       .  A
C717        H720   1.083       .  S
C718       Br724   1.921   1_655  S
C725        C726   1.417       .  A
C725        C730   1.411       .  A
C726        C727   1.401       .  A
C726       Br742   1.921       .  S
C727        C728   1.401       .  A
C727        H731   1.084       .  S
C728        C732   1.473       .  S
C728        C729   1.402       .  A
C729        C730   1.395       .  A
C729       Br741   1.919       .  S
C730        H733   1.083       .  S
C732        C734   1.398       .  A
C732        C738   1.406       .  A
C734        C735   1.397       .  A
C734        H739   1.084       .  S
C735        C736   1.416       .  A
C735       Br743   1.922       .  S
C736        C737   1.405       .  A
C737        C738   1.400       .  A
C737        H740   1.083       .  S
C738       Br744   1.918       .  S
C745        C746   1.419       .  A
C745        C750   1.408       .  A
C746        C747   1.398       .  A
C746       Br762   1.923       .  S
C747        C748   1.398       .  A
C747        H751   1.083       .  S
C748        C752   1.474       .  S
C748        C749   1.404       .  A
C749        C750   1.399       .  A
C749       Br761   1.918       .  S
C750        H753   1.083       .  S
C752        C754   1.399       .  A
C752        C758   1.405       .  A
C754        C755   1.397       .  A
C754        H759   1.083       .  S
C755        C756   1.415       .  A
C755       Br763   1.921       .  S
C756        C757   1.408       .  A
C757        C758   1.399       .  A
C757        H760   1.083       .  S
C758       Br764   1.918       .  S
C765        C766   1.419       .  A
C765        C770   1.409       .  A
C766        C767   1.402       .  A
C766       Br782   1.922       .  S
C767        C768   1.403       .  A
C767        H771   1.084       .  S
C768        C772   1.482       .  S
C768        C769   1.405       .  A
C769        C770   1.397       .  A
C769       Br781   1.920       .  S
C770        H773   1.083       .  S
C772        C774   1.403       .  A
C772        C778   1.407       .  A
C774        C775   1.400       .  A
C774        H779   1.083       .  S
C775        C776   1.414       .  A
C775       Br783   1.921       .  S
C776        C777   1.407       .  A
C777        C778   1.399       .  A
C777        H780   1.083       .  S
C778       Br784   1.919       .  S
C785        C786   1.415       .  A
C785        C790   1.407       .  A
C786        C787   1.401       .  A
C786       Br802   1.921       .  S
C787        C788   1.401       .  A
C787        H791   1.083       .  S
C788        C792   1.473       .  S
C788        C789   1.403       .  A
C789        C790   1.395       .  A
C789       Br801   1.919       .  S
C790        H793   1.083       .  S
C792        C794   1.401       .  A
C792        C798   1.404       .  A
C794        C795   1.400       .  A
C794        H799   1.083       .  S
C795        C796   1.414       .  A
C795       Br803   1.920       .  S
C796        C797   1.407       .  A
C797        C798   1.396       .  A
C797        H800   1.083       .  S
C798       Br804   1.919       .  S
C805        C806   1.419       .  A
C805        C810   1.409       .  A
C806        C807   1.398       .  A
C806       Br822   1.922       .  S
C807        C808   1.398       .  A
C807        H811   1.084       .  S
C808        C812   1.473       .  S
C808        C809   1.404       .  A
C809        C810   1.399       .  A
C809       Br821   1.918       .  S
C810        H813   1.083       .  S
C812        C814   1.401       .  A
C812        C818   1.405       .  A
C814        C815   1.401       .  A
C814        H819   1.083       .  S
C815        C816   1.413       .  A
C815       Br823   1.920       .  S
C816        C817   1.406       .  A
C817        C818   1.396       .  A
C817        H820   1.084       .  S
C818       Br824   1.919       .  S
C825        C826   1.420       .  A
C825        C830   1.409       .  A
C826        C827   1.400       .  A
C826       Br842   1.922       .  S
C827        C828   1.399       .  A
C827        H831   1.084       .  S
C828        C832   1.473       .  S
C828        C829   1.403       .  A
C829        C830   1.396       .  A
C829       Br841   1.919       .  S
C830        H833   1.083       .  S
C832        C834   1.400       .  A
C832        C838   1.405       .  A
C834        C835   1.399       .  A
C834        H839   1.084       .  S
C835        C836   1.414       .  A
C835       Br843   1.921       .  S
C836        C837   1.406       .  A
C837        C838   1.398       .  A
C837        H840   1.083       .  S
C838       Br844   1.918       .  S
C845        C846   1.409       .  A
C845        C850   1.404   1_455  A
C846        C847   1.393   1_455  A
C846       Br862   1.921       .  S
C847        C848   1.401       .  A
C847        H851   1.084       .  S
C848        C852   1.478       .  S
C848        C849   1.409       .  A
C849        C850   1.404       .  A
C849       Br861   1.917       .  S
C850        H853   1.083       .  S
C852        C854   1.402       .  A
C852        C858   1.409       .  A
C854        C855   1.398   1_545  A
C854        H859   1.083       .  S
C855        C856   1.409       .  A
C855       Br863   1.920       .  S
C856        C857   1.402       .  A
C857        C858   1.399   1_565  A
C857        H860   1.083       .  S
C858       Br864   1.919       .  S
