geometry optimzed in LAMMPS
_audit_creation_date              2020-12-01 
_audit_creation_method            'lammps2cif' 
_symmetry_space_group_name_H-M    'P1' 
_symmetry_Int_Tables_number       1 
_symmetry_cell_setting            triclinic 
loop_ 
_symmetry_equiv_pos_as_xyz 
  x,y,z 
_cell_length_a                    43.02510358 
_cell_length_b                    42.90437411559231 
_cell_length_c                    43.14510627728572 
_cell_angle_alpha                 89.9562690584837 
_cell_angle_beta                  89.88076882590043 
_cell_angle_gamma                 90.3159121548958 
loop_ 
_atom_site_label 
_atom_site_type_symbol 
_atom_site_fract_x 
_atom_site_fract_y 
_atom_site_fract_z 
_atom_site_charge 
C1          C  0.08248121  0.71086397  0.94821052     0.03700
C2          C  0.07503018  0.71749328  0.91760882    -0.12500
C3          C  0.05035902  0.70240399  0.90302508     0.01200
C4          C  0.03230152  0.68051151  0.91973421    -0.11000
C5          C  0.03924986  0.67377088  0.95100319     0.03700
C6          C  0.06440692  0.68933667  0.96521309    -0.10400
H7          H  0.08889046  0.73439234  0.90483697     0.09200
H8          H  0.01276622  0.66908001  0.90865333     0.06800
H9          H  0.07058583  0.68394044  0.98894985     0.06600
C10         C  0.84912171  0.69633445  0.94279720     0.03700
C11         C  0.86007555  0.70550604  0.91374255    -0.12500
C12         C  0.88987517  0.69769358  0.90380947     0.01200
C13         C  0.90852509  0.67840166  0.92272876    -0.11000
C14         C  0.89777126  0.66836694  0.95215929     0.03700
C15         C  0.86803959  0.67792058  0.96216201    -0.10400
H16         H  0.84522328  0.71920102  0.89876229     0.09200
H17         H  0.93106977  0.67094237  0.91442362     0.06800
H18         H  0.85949364  0.67068582  0.98469903     0.06600
C19         C  0.88806367  0.69170954  0.15026473     0.03700
C20         C  0.90858301  0.67444460  0.13132283    -0.12500
C21         C  0.89814245  0.66202034  0.10280318     0.01200
C22         C  0.86764298  0.66868771  0.09286393    -0.11000
C23         C  0.84752204  0.68610464  0.11184828     0.03700
C24         C  0.85752965  0.69607276  0.14078116    -0.10400
H25         H  0.93247503  0.67112169  0.13837006     0.09200
H26         H  0.85980471  0.66072354  0.07036118     0.06800
H27         H  0.84202395  0.70993829  0.15501973     0.06600
C28         C  0.05719658  0.70726165  0.13094190     0.03700
C29         C  0.08913095  0.70806840  0.12635787    -0.12500
C30         C  0.10460116  0.68448368  0.11016004     0.01200
C31         C  0.08575887  0.66243529  0.09398924    -0.11000
C32         C  0.05275521  0.66443011  0.09435713     0.03700
C33         C  0.03869543  0.68654124  0.11378498    -0.10400
H34         H  0.10175067  0.72690061  0.13701641     0.09200
H35         H  0.09625776  0.64389599  0.08075806     0.06800
H36         H  0.01369515  0.68647122  0.11690311     0.06600
C37         C  0.89497783  0.42664633  0.14525857     0.03700
C38         C  0.86712090  0.41570785  0.13273389    -0.12500
C39         C  0.85920954  0.42233313  0.10213532     0.01200
C40         C  0.87851634  0.44154533  0.08401509    -0.11000
C41         C  0.90596879  0.45409203  0.09648347     0.03700
C42         C  0.91418666  0.44656568  0.12732346    -0.10400
H43         H  0.85155226  0.40163039  0.14681271     0.09200
H44         H  0.87149048  0.44775034  0.06070434     0.06800
H45         H  0.93518830  0.45626579  0.13733521     0.06600
C46         C  0.84558982  0.43589198  0.93663986     0.03700
C47         C  0.86463864  0.45320988  0.95710508    -0.12500
C48         C  0.89592419  0.45999067  0.94938391     0.01200
C49         C  0.90800397  0.44849174  0.92121747    -0.11000
C50         C  0.88906083  0.43099291  0.90094733     0.03700
C51         C  0.85803010  0.42547038  0.90857990    -0.10400
H52         H  0.85534021  0.46121512  0.97900620     0.09200
H53         H  0.93168752  0.45407112  0.91454642     0.06800
H54         H  0.84342990  0.41251643  0.89260481     0.06600
C55         C  0.10110825  0.43909235  0.94004454     0.03700
C56         C  0.08029118  0.45619756  0.95866168    -0.12500
C57         C  0.05145139  0.46586958  0.94657515     0.01200
C58         C  0.04388301  0.45820667  0.91574046    -0.11000
C59         C  0.06492553  0.44143381  0.89715906     0.03700
C60         C  0.09340325  0.43229896  0.90940907    -0.10400
H61         H  0.08661668  0.46213202  0.98223761     0.09200
H62         H  0.02169215  0.46522646  0.90624934     0.06800
H63         H  0.10925622  0.41874391  0.89530092     0.06600
C64         C  0.05533373  0.42721462  0.13916129     0.03700
C65         C  0.08492002  0.41826556  0.12953536    -0.12500
C66         C  0.09655991  0.42756143  0.10077773     0.01200
C67         C  0.07855653  0.44704095  0.08151235    -0.11000
C68         C  0.04861817  0.45660230  0.09094763     0.03700
C69         C  0.03718798  0.44648927  0.11995633    -0.10400
H70         H  0.09891350  0.40362288  0.14445936     0.09200
H71         H  0.08800507  0.45509205  0.05960723     0.06800
H72         H  0.01456330  0.45414269  0.12788507     0.06600
O73         O  0.02712943  0.62043179  0.95796085    -0.74800
O74         O  0.00519657  0.65563013  0.99122156    -0.53700
C75         C  0.02249318  0.64843422  0.96775359     0.79000
O76         O  0.90576319  0.51168096  0.96491305    -0.59400
O77         O  0.93733246  0.47377724  0.98460231    -0.52400
C78         C  0.91416698  0.48306387  0.96783920     0.71000
O79         O  0.90879543  0.61584657  0.96355613    -0.73900
O80         O  0.93525911  0.65316674  0.99098311    -0.54500
C81         C  0.91523893  0.64443642  0.97019082     0.77000
O82         O  0.03572947  0.51670331  0.95826417    -0.59100
O83         O  0.01136900  0.47668039  0.98395368    -0.52200
C84         C  0.03142618  0.48761750  0.96423516     0.73600
Zr85       Zr  0.01522934  0.56692271  0.97448865     2.54700
O86         O  0.00916297  0.56501652  0.91842749    -0.79600
O87         O  0.07143246  0.57383763  0.97442753    -0.93000
Zr88       Zr  0.92421548  0.56355758  0.97993322     2.64700
O89         O  0.92553995  0.56274300  0.92344737    -0.98000
O90         O  0.86766452  0.56421355  0.98296600    -0.80100
O91         O  0.96894520  0.59619312  0.97863954    -0.83400
O92         O  0.97053747  0.53411079  0.97532867    -2.18100
O93         O  0.03812753  0.50921555  0.07960345    -0.66800
O94         O  0.01023535  0.47205428  0.05350696    -0.51400
C95         C  0.03129752  0.48066651  0.07318644     0.72000
O96         O  0.91265661  0.61075609  0.09029549    -0.59700
O97         O  0.93663976  0.65051893  0.06395266    -0.51700
C98         C  0.91746401  0.63988011  0.08464790     0.73800
O99         O  0.91666270  0.50690985  0.08719581    -0.71100
O100        O  0.94088128  0.47100623  0.05635341    -0.49800
C101        C  0.92267538  0.47875350  0.07897832     0.75100
O102        O  0.04130211  0.61251212  0.08043733    -0.66400
O103        O  0.00951503  0.65057660  0.06135263    -0.53600
C104        C  0.03318632  0.64115662  0.07747129     0.73500
Zr105      Zr  0.02106415  0.56169124  0.06540230     2.77500
O106        O  0.02015123  0.56266884  0.12182950    -0.97200
O107        O  0.07735509  0.55890840  0.06047161    -0.78000
Zr108      Zr  0.92967650  0.55993996  0.07111326     2.70100
O109        O  0.93526872  0.55739847  0.12718637    -0.79300
O110        O  0.87306215  0.55782653  0.07254598    -0.98300
Zr111      Zr  0.97139163  0.62509956  0.02606381     2.21500
Zr112      Zr  0.97382087  0.50093392  0.01997512     2.11100
O113        O  0.97582366  0.53010950  0.06726507    -2.47000
O114        O  0.97497466  0.59178090  0.07049287    -0.79100
O115        O  0.01910139  0.53352084  0.01827193    -0.71300
O116        O  0.92575477  0.59262208  0.02686738    -2.32200
O117        O  0.01791348  0.59502007  0.02153988    -2.28400
O118        O  0.92704269  0.53083484  0.02428666    -0.73000
H119        H  0.97002965  0.52168386  0.95665115     0.79000
H120        H  0.90732021  0.60527697  0.02829457     0.80100
H121        H  0.97708602  0.51634539  0.08493053     0.82300
H122        H  0.03595462  0.60847988  0.02077031     0.79900
H123        H  0.86263684  0.58293274  0.99536334     0.42900
H124        H  0.86625871  0.57507962  0.05895015     0.41900
H125        H  0.91394979  0.55336334  0.13496183     0.41600
H126        H  0.01143092  0.54217937  0.12800880     0.39500
H127        H  0.08284202  0.57539438  0.04532066     0.42700
H128        H  0.07770786  0.57072561  0.95256362     0.37400
H129        H  0.03047125  0.56796845  0.91018190     0.43600
H130        H  0.93436624  0.54224952  0.91780513     0.40000
H131        H  0.04230466  0.56170696  0.12790960     0.44900
H132        H  0.07950983  0.55534877  0.98547381     0.43600
H133        H  0.90343498  0.56128131  0.91724642     0.43800
H134        H  0.86750345  0.53868716  0.06095929     0.44100
C135        C  0.60962178  0.98062768  0.14915470     0.03700
C136        C  0.61820178  0.95086875  0.13944137    -0.12500
C137        C  0.60817709  0.93908192  0.11096528     0.01200
C138        C  0.58849731  0.95725957  0.09207226    -0.11000
C139        C  0.57958652  0.98750011  0.10140567     0.03700
C140        C  0.59018643  0.99890452  0.13020331    -0.10400
H141        H  0.63280914  0.93671358  0.15423202     0.09200
H142        H  0.57998003  0.94780798  0.07039120     0.06800
H143        H  0.58280155  0.02164218  0.13818487     0.06600
C144        C  0.60784730  0.97565368  0.91143797     0.03700
C145        C  0.61085457  0.94472667  0.92059164    -0.12500
C146        C  0.59908881  0.93455541  0.94894672     0.01200
C147        C  0.58162157  0.95507287  0.96749117    -0.11000
C148        C  0.57633253  0.98597830  0.95763870     0.03700
C149        C  0.58997979  0.99630113  0.92960757    -0.10400
H150        H  0.62453104  0.92891421  0.90653818     0.09200
H151        H  0.57229472  0.94708188  0.98946966     0.06800
H152        H  0.58682379  0.02015635  0.92203854     0.06600
C153        C  0.59774181  0.19664790  0.94689649     0.03700
C154        C  0.57565896  0.17753322  0.96278771    -0.12500
C155        C  0.57806947  0.14446351  0.96264944     0.01200
C156        C  0.60085379  0.13059264  0.94383194    -0.11000
C157        C  0.62231926  0.14934546  0.92779824     0.03700
C158        C  0.62239777  0.18137181  0.93220100    -0.10400
H159        H  0.55668663  0.18781963  0.97551594     0.09200
H160        H  0.60084052  0.10557642  0.94036691     0.06800
H161        H  0.64145421  0.19419951  0.92216852     0.06600
C162        C  0.61707440  0.17733198  0.10835394     0.03700
C163        C  0.59618500  0.15919499  0.09089541    -0.12500
C164        C  0.58132133  0.13325522  0.10438938     0.01200
C165        C  0.58802610  0.12543986  0.13543141    -0.11000
C166        C  0.60949751  0.14339625  0.15259445     0.03700
C167        C  0.62290850  0.16978053  0.13917438    -0.10400
H168        H  0.59080695  0.16582702  0.06726779     0.09200
H169        H  0.57683588  0.10541680  0.14606818     0.06800
H170        H  0.63832446  0.18444501  0.15273380     0.06600
C171        C  0.34286801  0.18475846  0.94587620     0.03700
C172        C  0.33641382  0.17367083  0.91638111    -0.12500
C173        C  0.34548375  0.14402157  0.90737918     0.01200
C174        C  0.36295297  0.12535491  0.92770087    -0.11000
C175        C  0.37122209  0.13668513  0.95730021     0.03700
C176        C  0.36084490  0.16659100  0.96639428    -0.10400
H177        H  0.32261481  0.18773141  0.90069470     0.09200
H178        H  0.37032722  0.10238387  0.92041026     0.06800
H179        H  0.36691806  0.17573335  0.98899763     0.06600
C180        C  0.34123893  0.98466637  0.90645093     0.03700
C181        C  0.32975663  0.95695887  0.91911033    -0.12500
C182        C  0.33712381  0.94823030  0.94920630     0.01200
C183        C  0.35666658  0.96709773  0.96732816    -0.11000
C184        C  0.36899249  0.99492306  0.95514152     0.03700
C185        C  0.36082092  0.00392586  0.92468111    -0.10400
H186        H  0.31452270  0.94211188  0.90549819     0.09200
H187        H  0.36274318  0.95979059  0.99058958     0.06800
H188        H  0.36935857  0.02584979  0.91555684     0.06600
C189        C  0.34661635  0.97963381  0.15613364     0.03700
C190        C  0.36280070  0.99872794  0.13487384    -0.12500
C191        C  0.37227526  0.98690817  0.10588386     0.01200
C192        C  0.36357157  0.95597397  0.09786096    -0.11000
C193        C  0.34607833  0.93730932  0.11880703     0.03700
C194        C  0.33936936  0.94895798  0.14820916    -0.10400
H195        H  0.36853227  0.02253041  0.14110640     0.09200
H196        H  0.37023295  0.94657238  0.07553689     0.06800
H197        H  0.32695560  0.93440588  0.16471901     0.06600
C198        C  0.34735164  0.19024857  0.11109354     0.03700
C199        C  0.33888054  0.18236047  0.14126427    -0.12500
C200        C  0.34701545  0.15366747  0.15396601     0.01200
C201        C  0.36442588  0.13237528  0.13607990    -0.11000
C202        C  0.37349956  0.13995891  0.10549509     0.03700
C203        C  0.36453784  0.16899111  0.09304137    -0.10400
H204        H  0.32508269  0.19850771  0.15480963     0.09200
H205        H  0.37080716  0.11004126  0.14583471     0.06800
H206        H  0.37127353  0.17520557  0.06961257     0.06600
O207        O  0.52730677  0.99801998  0.08922418    -0.74800
O208        O  0.56476707  0.02691097  0.06450798    -0.53700
C209        C  0.55586346  0.00526467  0.08360430     0.79000
O210        O  0.42145258  0.00676935  0.96510063    -0.59400
O211        O  0.38459555  0.02978182  0.99572787    -0.52400
C212        C  0.39308170  0.01204798  0.97299181     0.71000
O213        O  0.52484024  0.00003607  0.96881731    -0.73900
O214        O  0.56354043  0.02665123  0.99393462    -0.54500
C215        C  0.55365764  0.00572619  0.97461580     0.77000
O216        O  0.42393503  0.99824432  0.09174943    -0.59100
O217        O  0.38582965  0.02670435  0.06812989    -0.52200
C218        C  0.39523937  0.00505700  0.08694874     0.73600
Zr219      Zr  0.47534447  0.01607619  0.07512162     2.54700
O220        O  0.47563907  0.95937918  0.07317680    -0.79600
O221        O  0.47690956  0.01926302  0.13149349    -0.93000
Zr222      Zr  0.47363378  0.01921826  0.98384824     2.64700
O223        O  0.47033564  0.96249106  0.98487532    -0.98000
O224        O  0.47663541  0.02334756  0.92764342    -0.80100
O225        O  0.50517023  0.01699990  0.02880721    -0.83400
O226        O  0.44361060  0.01729264  0.03009647    -2.18100
O227        O  0.42489085  0.12495261  0.09518508    -0.66800
O228        O  0.38629379  0.10038625  0.06792662    -0.51400
C229        C  0.39612300  0.12015020  0.08847318     0.72000
O230        O  0.52591960  0.13244428  0.97514860    -0.59700
O231        O  0.56358772  0.10074981  0.99492339    -0.51700
C232        C  0.55448319  0.12458203  0.97882721     0.73800
O233        O  0.42305107  0.12572927  0.96967005    -0.71100
O234        O  0.38528835  0.09962252  0.99689700    -0.49800
C235        C  0.39447078  0.11952970  0.97611778     0.75100
O236        O  0.52861008  0.12188655  0.09496868    -0.66400
O237        O  0.56524855  0.09768808  0.06496580    -0.53600
C238        C  0.55691565  0.11630788  0.08699126     0.73500
Zr239      Zr  0.47617683  0.10783249  0.07798231     2.77500
O240        O  0.47886087  0.16451536  0.07441549    -0.97200
O241        O  0.47540770  0.10616382  0.13435314    -0.78000
Zr242      Zr  0.47475349  0.11087230  0.98708388     2.70100
O243        O  0.47014807  0.16727618  0.99086258    -0.79300
O244        O  0.47929445  0.11048453  0.93081015    -0.98300
Zr245      Zr  0.53685626  0.06296486  0.02952797     2.21500
Zr246      Zr  0.41280658  0.06371400  0.03241265     2.11100
O247        O  0.44454366  0.10986464  0.03308120    -2.47000
O248        O  0.50637612  0.10942263  0.03195573    -0.79100
O249        O  0.44480635  0.06202926  0.07780389    -0.71300
O250        O  0.50511283  0.06486559  0.98397575    -2.32200
O251        O  0.50650518  0.06178441  0.07622186    -2.28400
O252        O  0.44336367  0.06522449  0.98589557    -0.73000
H253        H  0.43031255  0.99906464  0.02965965     0.79000
H254        H  0.51790998  0.06545893  0.96551140     0.80100
H255        H  0.43176973  0.12829665  0.03363803     0.82300
H256        H  0.51989098  0.06110960  0.09415076     0.79900
H257        H  0.46065551  0.03889797  0.92212398     0.42900
H258        H  0.46069750  0.09893742  0.92357622     0.41900
H259        H  0.48662438  0.17361538  0.00559120     0.41600
H260        H  0.45711662  0.17145815  0.07179235     0.39500
H261        H  0.46406194  0.08667344  0.13942552     0.42700
H262        H  0.49722040  0.02901586  0.13639483     0.37400
H263        H  0.46094151  0.95393677  0.05638220     0.43600
H264        H  0.44933834  0.95762982  0.99303870     0.40000
H265        H  0.48461971  0.17146210  0.09552660     0.44900
H266        H  0.47902410  0.99737564  0.13843397     0.43600
H267        H  0.46946392  0.95633216  0.96278029     0.43800
H268        H  0.47549620  0.13235003  0.92457572     0.44100
C269        C  0.09776052  0.98117824  0.65304536     0.03700
C270        C  0.07871969  0.00214068  0.63661522    -0.12500
C271        C  0.04861878  0.99311478  0.62715655     0.01200
C272        C  0.03735830  0.96330948  0.63568703    -0.11000
C273        C  0.05641406  0.94252974  0.65239552     0.03700
C274        C  0.08651598  0.95157087  0.66027944    -0.10400
H275        H  0.08725713  0.02530039  0.63113535     0.09200
H276        H  0.01399396  0.95639469  0.62930236     0.06800
H277        H  0.10101172  0.93574555  0.67344618     0.06600
C278        C  0.85392340  0.98871689  0.65947919     0.03700
C279        C  0.87347940  0.00722074  0.64057752    -0.12500
C280        C  0.90229432  0.99554747  0.63006325     0.01200
C281        C  0.91117741  0.96515222  0.63900329    -0.11000
C282        C  0.89127439  0.94669100  0.65764389     0.03700
C283        C  0.86269722  0.95851287  0.66708580    -0.10400
H284        H  0.86625379  0.03045818  0.63401134     0.09200
H285        H  0.93337261  0.95597045  0.63154545     0.06800
H286        H  0.84769608  0.94450951  0.68187729     0.06600
C287        C  0.89560400  0.19327926  0.65670551     0.03700
C288        C  0.86779978  0.18194143  0.66896832    -0.12500
C289        C  0.85761339  0.15183698  0.66239838     0.01200
C290        C  0.87521919  0.13272609  0.64241877    -0.11000
C291        C  0.90351213  0.14380124  0.62978578     0.03700
C292        C  0.91368515  0.17414333  0.63731855    -0.10400
H293        H  0.85427008  0.19649939  0.68444524     0.09200
H294        H  0.86688971  0.10956854  0.63666015     0.06800
H295        H  0.93547755  0.18286069  0.62802202     0.06600
C296        C  0.05912874  0.19529554  0.65573825     0.03700
C297        C  0.08728147  0.18363337  0.66634002    -0.12500
C298        C  0.09644389  0.15340277  0.65935367     0.01200
C299        C  0.07750073  0.13451855  0.64023813    -0.11000
C300        C  0.04945584  0.14627463  0.62794245     0.03700
C301        C  0.04044298  0.17693391  0.63586773    -0.10400
H302        H  0.10203912  0.19810563  0.68083213     0.09200
H303        H  0.08484318  0.11110367  0.63449906     0.06800
H304        H  0.01896423  0.18634943  0.62685229     0.06600
C305        C  0.88701151  0.19185149  0.39702236     0.03700
C306        C  0.90704984  0.17222871  0.41391472    -0.12500
C307        C  0.89756948  0.14192146  0.42262689     0.01200
C308        C  0.86800513  0.13107735  0.41294878    -0.11000
C309        C  0.84834328  0.15037137  0.39505305     0.03700
C310        C  0.85775645  0.18080939  0.38820649    -0.10400
H311        H  0.92986083  0.18065442  0.42058072     0.09200
H312        H  0.86021208  0.10794289  0.41953307     0.06800
H313        H  0.84241695  0.19590933  0.37519828     0.06600
C314        C  0.84579034  0.98237424  0.40368605     0.03700
C315        C  0.86509334  0.00350762  0.41991937    -0.12500
C316        C  0.89674464  0.99639916  0.42514499     0.01200
C317        C  0.90863780  0.96817088  0.41360800    -0.11000
C318        C  0.88901005  0.94681535  0.39831563     0.03700
C319        C  0.85781778  0.95396487  0.39392002    -0.10400
H320        H  0.85574392  0.02546487  0.42795428     0.09200
H321        H  0.93295159  0.96265566  0.41692083     0.06800
H322        H  0.84315904  0.93803394  0.38088799     0.06600
C323        C  0.10336750  0.99376394  0.39735889     0.03700
C324        C  0.08364659  0.01100891  0.41683092    -0.12500
C325        C  0.05260405  0.00133811  0.42147215     0.01200
C326        C  0.04185264  0.97408871  0.40667956    -0.11000
C327        C  0.06220775  0.95659346  0.38802291     0.03700
C328        C  0.09267832  0.96649830  0.38363699    -0.10400
H329        H  0.09229402  0.03193441  0.42800610     0.09200
H330        H  0.01817885  0.96610869  0.41028943     0.06800
H331        H  0.10799597  0.95331897  0.36858563     0.06600
C332        C  0.06165283  0.18539037  0.38708347     0.03700
C333        C  0.04193652  0.16693702  0.40584136    -0.12500
C334        C  0.05296360  0.13931669  0.41964481     0.01200
C335        C  0.08405092  0.13020394  0.41365688    -0.11000
C336        C  0.10362104  0.14845159  0.39424270     0.03700
C337        C  0.09236441  0.17641051  0.38221389    -0.10400
H338        H  0.01844136  0.17463679  0.41050434     0.09200
H339        H  0.09303419  0.10918651  0.42421091     0.06800
H340        H  0.10765559  0.19145501  0.36887489     0.06600
O341        O  0.91470525  0.00638013  0.57809185    -0.74800
O342        O  0.94067846  0.03412917  0.61529265    -0.53700
C343        C  0.92068625  0.01319120  0.60650461     0.79000
O344        O  0.04054680  0.01214866  0.47320962    -0.59400
O345        O  0.01054151  0.03486638  0.43577388    -0.52400
C346        C  0.03313561  0.01726032  0.44481494     0.71000
O347        O  0.03747259  0.00684962  0.57576333    -0.73900
O348        O  0.01150037  0.03297789  0.61402710    -0.54500
C349        C  0.03128111  0.01241847  0.60441216     0.77000
O350        O  0.90965248  0.00975258  0.47589872    -0.59100
O351        O  0.93723828  0.03380017  0.43717126    -0.52200
C352        C  0.91570115  0.01500147  0.44721328     0.73600
Zr353      Zr  0.93001778  0.02381358  0.52638394     2.54700
O354        O  0.93371983  0.96724845  0.52390510    -0.79600
O355        O  0.87343797  0.02460674  0.52821215    -0.93000
Zr356      Zr  0.02109697  0.02455560  0.52464633     2.64700
O357        O  0.01515954  0.96818995  0.52139756    -0.98000
O358        O  0.07766386  0.02380555  0.52582591    -0.80100
O359        O  0.97609979  0.02356931  0.55644225    -0.83400
O360        O  0.97504889  0.02350189  0.49439164    -2.18100
O361        O  0.91058413  0.12993922  0.47428836    -0.66800
O362        O  0.93754233  0.10483089  0.43601484    -0.51400
C363        C  0.91642979  0.12407849  0.44557552     0.72000
O364        O  0.03629784  0.13508938  0.57589536    -0.59700
O365        O  0.01271651  0.10606475  0.61391539    -0.51700
C366        C  0.03146756  0.12791985  0.60455778     0.73800
O367        O  0.04024999  0.12908234  0.47202762    -0.71100
O368        O  0.01148333  0.10415724  0.43485057    -0.49800
C369        C  0.03363574  0.12284947  0.44354448     0.75100
O370        O  0.91408366  0.13185585  0.57764736    -0.66400
O371        O  0.94098429  0.10530135  0.61496320    -0.53600
C372        C  0.92063134  0.12555628  0.60608711     0.73500
Zr373      Zr  0.92983443  0.11547999  0.52568897     2.77500
O374        O  0.93399942  0.17206166  0.52407397    -0.97200
O375        O  0.87330093  0.11379749  0.52752176    -0.78000
Zr376      Zr  0.02133112  0.11623689  0.52428951     2.70100
O377        O  0.02053435  0.17290582  0.52084992    -0.79300
O378        O  0.07772553  0.11265923  0.52771136    -0.98300
Zr379      Zr  0.97650832  0.06990545  0.58723207     2.21500
Zr380      Zr  0.97435341  0.06984812  0.46312313     2.11100
O381        O  0.97507909  0.11636551  0.49403604    -2.47000
O382        O  0.97597354  0.11613697  0.55584357    -0.79100
O383        O  0.92904746  0.06948670  0.49535592    -0.71300
O384        O  0.02225765  0.07044224  0.55528950    -2.32200
O385        O  0.92992914  0.06976426  0.55677360    -2.28400
O386        O  0.02074569  0.07031425  0.49378822    -0.73000
H387        H  0.97490363  0.00512431  0.48145790     0.79000
H388        H  0.04074975  0.07052319  0.56795595     0.80100
H389        H  0.97483738  0.13454994  0.48083947     0.82300
H390        H  0.91181051  0.06966732  0.57001828     0.79900
H391        H  0.08397143  0.04531337  0.52023985     0.42900
H392        H  0.08470341  0.10607815  0.50685090     0.41900
H393        H  0.00460511  0.17764757  0.50503710     0.41600
H394        H  0.91341471  0.17951122  0.53109477     0.39500
H395        H  0.86778172  0.09296426  0.51928268     0.42700
H396        H  0.86822231  0.03687107  0.54692132     0.37400
H397        H  0.91224118  0.96005841  0.51963960     0.43600
H398        H  0.03570593  0.95991013  0.52746084     0.40000
H399        H  0.94828003  0.17741560  0.54125700     0.44900
H400        H  0.86730970  0.00296008  0.53348111     0.43600
H401        H  0.00126313  0.96267582  0.53890745     0.43800
H402        H  0.08493882  0.13452979  0.52960034     0.44100
C403        C  0.00268456  0.39141880  0.25479877    -0.10300
C404        C  0.97517875  0.40770620  0.25045601    -0.04200
C405        C  0.94688319  0.39552044  0.26070240    -0.10300
C406        C  0.94687948  0.37127028  0.28298393     0.10600
C407        C  0.97561933  0.35784000  0.29197669    -0.02100
C408        C  0.00350805  0.36680831  0.27655884     0.10400
C409        C  0.03110683  0.35072774  0.28292958    -0.12100
C410        C  0.03172570  0.32713058  0.30527455    -0.12100
C411        C  0.00463946  0.31859832  0.32150384     0.10400
C412        C  0.97611219  0.33359103  0.31433793    -0.02100
C413        C  0.91913337  0.35992360  0.29611683    -0.12200
C414        C  0.91962977  0.33636319  0.31860089    -0.12200
C415        C  0.94781794  0.32289833  0.32796066     0.10600
C416        C  0.94878054  0.29841285  0.35000434    -0.10300
C417        C  0.97742791  0.28700941  0.35953281    -0.04200
C418        C  0.00489539  0.29497996  0.34432953    -0.10300
H419        H  0.05249772  0.35675756  0.27104271     0.07900
H420        H  0.05359928  0.31570805  0.30996799     0.07900
H421        H  0.89698712  0.36975771  0.28947677     0.08100
H422        H  0.89781917  0.32860775  0.32862803     0.08100
H423        H  0.97488440  0.42568108  0.23266144     0.04500
H424        H  0.97785649  0.26781850  0.37601179     0.04500
C425        C  0.29677339  0.04293159  0.25898600    -0.10300
C426        C  0.30568131  0.07145963  0.24654610    -0.04200
C427        C  0.29744236  0.09967527  0.25996283    -0.10300
C428        C  0.28020062  0.09981176  0.28788157     0.10600
C429        C  0.27106842  0.07084182  0.30130169    -0.02100
C430        C  0.27905375  0.04217442  0.28662254     0.10400
C431        C  0.26849156  0.01398109  0.29953008    -0.12100
C432        C  0.24934911  0.01388705  0.32573614    -0.12100
C433        C  0.24155949  0.04186775  0.34065769     0.10400
C434        C  0.25285174  0.07056373  0.32874407    -0.02100
C435        C  0.27132328  0.12773178  0.30233990    -0.12200
C436        C  0.25274717  0.12736406  0.32900042    -0.12200
C437        C  0.24324591  0.09906910  0.34249161     0.10600
C438        C  0.22357013  0.09835467  0.36896977    -0.10300
C439        C  0.21750285  0.06972801  0.38309352    -0.04200
C440        C  0.22203170  0.04204319  0.36691656    -0.10300
H441        H  0.27449177  0.99189339  0.28903791     0.07900
H442        H  0.24104051  0.99175864  0.33468523     0.07900
H443        H  0.27842542  0.15003287  0.29285137     0.08100
H444        H  0.24599288  0.14934827  0.33926324     0.08100
H445        H  0.31858164  0.07173444  0.22483248     0.04500
H446        H  0.20126909  0.06910916  0.40239761     0.04500
C447        C  0.21399930  0.39583843  0.05153168    -0.10300
C448        C  0.20707936  0.41076445  0.02375877    -0.04200
C449        C  0.21280121  0.39640590  0.99541967    -0.10300
C450        C  0.23277804  0.37025889  0.99435578     0.10600
C451        C  0.24542472  0.35856096  0.02247617    -0.02100
C452        C  0.23487392  0.37046527  0.05132342     0.10400
C453        C  0.24522690  0.35666393  0.07896240    -0.12100
C454        C  0.26707012  0.33256196  0.07838409    -0.12100
C455        C  0.27836029  0.32089210  0.05011467     0.10400
C456        C  0.26679436  0.33349513  0.02184246    -0.02100
C457        C  0.24025947  0.35544213  0.96629992    -0.12200
C458        C  0.26128205  0.33061927  0.96563232    -0.12200
C459        C  0.27538621  0.31996294  0.99300832     0.10600
C460        C  0.29797217  0.29613766  0.99271224    -0.10300
C461        C  0.31187146  0.28701902  0.02031590    -0.04200
C462        C  0.30065790  0.29669071  0.04890422    -0.10300
H463        H  0.23719718  0.36522815  0.10117373     0.07900
H464        H  0.27527174  0.32317661  0.10017540     0.07900
H465        H  0.23048785  0.36357279  0.94465784     0.08100
H466        H  0.26709414  0.32030184  0.94347928     0.08100
H467        H  0.19035721  0.42968655  0.02429185     0.04500
H468        H  0.32853919  0.26804805  0.01971832     0.04500
C469        C  0.63874333  0.09145592  0.26874652    -0.10300
C470        C  0.62622910  0.06288178  0.25957215    -0.04200
C471        C  0.64193101  0.03517190  0.26505897    -0.10300
C472        C  0.66608580  0.03466930  0.28721127     0.10600
C473        C  0.67630175  0.06318662  0.30062790    -0.02100
C474        C  0.66376876  0.09187253  0.29008387     0.10400
C475        C  0.67709725  0.12000644  0.30037964    -0.12100
C476        C  0.70159410  0.12004779  0.32170815    -0.12100
C477        C  0.71334492  0.09195767  0.33350500     0.10400
C478        C  0.70081351  0.06318039  0.32259563    -0.02100
C479        C  0.68033674  0.00669454  0.29609494    -0.12200
C480        C  0.70343418  0.00649887  0.31888085    -0.12200
C481        C  0.71398559  0.03443950  0.33232201     0.10600
C482        C  0.73787633  0.03487622  0.35480094    -0.10300
C483        C  0.74745359  0.06312447  0.36747011    -0.04200
C484        C  0.73741798  0.09151232  0.35586800    -0.10300
H485        H  0.66824352  0.14214307  0.29228410     0.07900
H486        H  0.71092057  0.14220941  0.32942707     0.07900
H487        H  0.67302481  0.98473454  0.28604793     0.08100
H488        H  0.71317716  0.98435830  0.32584495     0.08100
H489        H  0.60844050  0.06278274  0.24169253     0.04500
H490        H  0.76659135  0.06309324  0.38390649     0.04500
C491        C  0.94596105  0.76492984  0.23810823    -0.10300
C492        C  0.97252380  0.75962387  0.22075303    -0.04200
C493        C  0.00120866  0.77189838  0.22889380    -0.10300
C494        C  0.00369921  0.79121821  0.25523596     0.10600
C495        C  0.97637873  0.79792985  0.27267762    -0.02100
C496        C  0.94739287  0.78420492  0.26446004     0.10400
C497        C  0.92074466  0.79090571  0.28202158    -0.12100
C498        C  0.92211612  0.81216681  0.30642262    -0.12100
C499        C  0.95017688  0.82710094  0.31400099     0.10400
C500        C  0.97785863  0.81899737  0.29780878    -0.02100
C501        C  0.03223424  0.80417625  0.26442346    -0.12200
C502        C  0.03374441  0.82476403  0.28943633    -0.12200
C503        C  0.00673289  0.83310488  0.30572399     0.10600
C504        C  0.00737368  0.85565701  0.32943502    -0.10300
C505        C  0.98003115  0.86347436  0.34476103    -0.04200
C506        C  0.95149819  0.85045319  0.33695871    -0.10300
H507        H  0.89853596  0.78037024  0.27638654     0.07900
H508        H  0.90099584  0.81722655  0.31911628     0.07900
H509        H  0.05342965  0.79880728  0.25199749     0.08100
H510        H  0.05612675  0.83450581  0.29571040     0.08100
H511        H  0.97088265  0.74492915  0.20026423     0.04500
H512        H  0.98066274  0.88209783  0.36184241     0.04500
C513        C  0.29520418  0.09118909  0.80014122    -0.10300
C514        C  0.30820209  0.06286161  0.80824870    -0.04200
C515        C  0.29787488  0.03481408  0.79581476    -0.10300
C516        C  0.27595651  0.03530177  0.77132884     0.10600
C517        C  0.26374716  0.06448239  0.76132728    -0.02100
C518        C  0.27371782  0.09266868  0.77559361     0.10400
C519        C  0.26079379  0.12113903  0.76620187    -0.12100
C520        C  0.23725536  0.12195170  0.74401076    -0.12100
C521        C  0.22581287  0.09430347  0.73082708     0.10400
C522        C  0.23961187  0.06528801  0.73902253    -0.02100
C523        C  0.26518457  0.00775208  0.75739114    -0.12200
C524        C  0.24136452  0.00851205  0.73539950    -0.12200
C525        C  0.22776396  0.03689817  0.72662940     0.10600
C526        C  0.20148825  0.03789225  0.70704038    -0.10300
C527        C  0.18920812  0.06646230  0.69844481    -0.04200
C528        C  0.20027916  0.09443993  0.71028793    -0.10300
H529        H  0.26840958  0.14286257  0.77654594     0.07900
H530        H  0.22751389  0.14429593  0.73772584     0.07900
H531        H  0.27477202  0.98541817  0.76394880     0.08100
H532        H  0.23300300  0.98668654  0.72586793     0.08100
H533        H  0.32408937  0.06235395  0.82783263     0.04500
H534        H  0.16871123  0.06680228  0.68372112     0.04500
C535        C  0.00669180  0.39833292  0.78924813    -0.10300
C536        C  0.97844509  0.40999496  0.79975416    -0.04200
C537        C  0.95023401  0.39740638  0.79014545    -0.10300
C538        C  0.94979543  0.37512271  0.76602179     0.10600
C539        C  0.97838608  0.36537748  0.75261418    -0.02100
C540        C  0.00708598  0.37653568  0.76469243     0.10400
C541        C  0.03510378  0.36506402  0.75251456    -0.12100
C542        C  0.03503930  0.34268478  0.72897295    -0.12100
C543        C  0.00696642  0.33157834  0.71653267     0.10400
C544        C  0.97833241  0.34288798  0.72855047    -0.02100
C545        C  0.92178220  0.36213765  0.75525876    -0.12200
C546        C  0.92175353  0.33985485  0.73164764    -0.12200
C547        C  0.94972949  0.32986122  0.71820921     0.10600
C548        C  0.95022868  0.30663108  0.69503626    -0.10300
C549        C  0.97813574  0.29942429  0.68046645    -0.04200
C550        C  0.00651926  0.30910999  0.69255625    -0.10300
H551        H  0.05722866  0.37330857  0.76130331     0.07900
H552        H  0.05709397  0.33437439  0.72020367     0.07900
H553        H  0.89972656  0.36929135  0.76499531     0.08100
H554        H  0.89971238  0.33039677  0.72388731     0.08100
H555        H  0.97850492  0.42600278  0.81928340     0.04500
H556        H  0.97812609  0.28095375  0.66320684     0.04500
C557        C  0.18398705  0.76227397  0.01231801    -0.10300
C558        C  0.17859205  0.74394975  0.03816434    -0.04200
C559        C  0.20048685  0.74061461  0.06170313    -0.10300
C560        C  0.22625110  0.76150291  0.06251027     0.10600
C561        C  0.23136796  0.78164084  0.03666280    -0.02100
C562        C  0.21100750  0.78074516  0.01071674     0.10400
C563        C  0.21760997  0.79896159  0.98449566    -0.12100
C564        C  0.24333260  0.81875641  0.98403926    -0.12100
C565        C  0.26249590  0.82166272  0.01017214     0.10400
C566        C  0.25669305  0.80286149  0.03671290    -0.02100
C567        C  0.24647348  0.76360300  0.08805690    -0.12200
C568        C  0.26967835  0.78673263  0.08925466    -0.12200
C569        C  0.27511233  0.80653380  0.06383468     0.10600
C570        C  0.29877959  0.82968499  0.06420391    -0.10300
C571        C  0.30590254  0.84546223  0.03688293    -0.04200
C572        C  0.28731035  0.84309949  0.01074972    -0.10300
H573        H  0.20268354  0.79825597  0.96432544     0.07900
H574        H  0.24770411  0.83242157  0.96335412     0.07900
H575        H  0.24383255  0.74815203  0.10770566     0.08100
H576        H  0.28405009  0.78848199  0.10976904     0.08100
H577        H  0.15733920  0.73015727  0.03886559     0.04500
H578        H  0.32371782  0.86354774  0.03732717     0.04500
C579        C  0.73587825  0.39298029  0.99102021    -0.10300
C580        C  0.75012320  0.40165552  0.01864325    -0.04200
C581        C  0.74682096  0.38398288  0.04539914    -0.10300
C582        C  0.72583782  0.35866350  0.04585343     0.10600
C583        C  0.70699103  0.35287014  0.01940593    -0.02100
C584        C  0.71186689  0.37023695  0.99174488     0.10400
C585        C  0.69285872  0.36433116  0.96596643    -0.12100
C586        C  0.66902182  0.34190695  0.96742563    -0.12100
C587        C  0.66494478  0.32316927  0.99395720     0.10400
C588        C  0.68472275  0.32842068  0.02002902    -0.02100
C589        C  0.72361349  0.33883659  0.07164396    -0.12200
C590        C  0.70271110  0.31395000  0.07178936    -0.12200
C591        C  0.68278853  0.30880318  0.04655610     0.10600
C592        C  0.66115551  0.28421209  0.04675200    -0.10300
C593        C  0.64154142  0.27988913  0.02174118    -0.04200
C594        C  0.64207918  0.29905514  0.99562523    -0.10300
H595        H  0.69584518  0.37774846  0.94488196     0.07900
H596        H  0.65408082  0.33912251  0.94748363     0.07900
H597        H  0.73807158  0.34247398  0.09185264     0.08100
H598        H  0.70187267  0.29901054  0.09202043     0.08100
H599        H  0.76843412  0.41923325  0.01803263     0.04500
H600        H  0.62590280  0.25994382  0.02246593     0.04500
C601        C  0.94450887  0.73574558  0.79002262    -0.10300
C602        C  0.97317392  0.72298530  0.79766972    -0.04200
C603        C  0.00098093  0.73690494  0.78842605    -0.10300
C604        C  0.00069472  0.75990849  0.76506630     0.10600
C605        C  0.97176904  0.77219940  0.75522763    -0.02100
C606        C  0.94351849  0.76088744  0.76856562     0.10400
C607        C  0.91542838  0.77539411  0.76062077    -0.12100
C608        C  0.91502021  0.80083995  0.74028543    -0.12100
C609        C  0.94268021  0.81248742  0.72717901     0.10400
C610        C  0.97135586  0.79770381  0.73423717    -0.02100
C611        C  0.02842913  0.77154447  0.75218026    -0.12200
C612        C  0.02796853  0.79571186  0.73045552    -0.12200
C613        C  0.99983596  0.80964332  0.72184202     0.10600
C614        C  0.99907701  0.83582173  0.70184687    -0.10300
C615        C  0.97072887  0.84928151  0.69479432    -0.04200
C616        C  0.94298178  0.83922833  0.70796394    -0.10300
H617        H  0.89362137  0.76720654  0.77030106     0.07900
H618        H  0.89294600  0.81164653  0.73508727     0.07900
H619        H  0.05062560  0.76195217  0.75901356     0.08100
H620        H  0.04982100  0.80397196  0.72093857     0.08100
H621        H  0.97397725  0.70558910  0.81598006     0.04500
H622        H  0.97053323  0.87012544  0.68040234     0.04500
C623        C  0.67244687  0.03761033  0.81786173    -0.10300
C624        C  0.66647217  0.06488342  0.83401434    -0.04200
C625        C  0.67886312  0.09344346  0.82516046    -0.10300
C626        C  0.69668651  0.09564663  0.79770704     0.10600
C627        C  0.70209471  0.06812297  0.78009893    -0.02100
C628        C  0.69086910  0.03870245  0.79077658     0.10400
C629        C  0.69881167  0.01155351  0.77447686    -0.12100
C630        C  0.71721719  0.01322536  0.74777442    -0.12100
C631        C  0.72714935  0.04215578  0.73604527     0.10400
C632        C  0.71946931  0.06987876  0.75224242    -0.02100
C633        C  0.70950587  0.12408529  0.78758556    -0.12200
C634        C  0.72658376  0.12576204  0.76000776    -0.12200
C635        C  0.73132657  0.09904202  0.74184709     0.10600
C636        C  0.74813134  0.10035207  0.71369688    -0.10300
C637        C  0.75126499  0.07343770  0.69595229    -0.04200
C638        C  0.74498786  0.04424524  0.70862229    -0.10300
H639        H  0.69099544  0.98888722  0.78244966     0.07900
H640        H  0.72297171  0.99184256  0.73578218     0.07900
H641        H  0.70626449  0.14519686  0.80091257     0.08100
H642        H  0.73573315  0.14815968  0.75268087     0.08100
H643        H  0.65234485  0.06365761  0.85493588     0.04500
H644        H  0.76583151  0.07458352  0.67533507     0.04500
C645        C  0.74219382  0.74088741  0.00112839    -0.10300
C646        C  0.75355224  0.72886485  0.02867783    -0.04200
C647        C  0.74164193  0.73747310  0.05737949    -0.10300
C648        C  0.71591164  0.75786679  0.05885153     0.10600
C649        C  0.70221062  0.76826085  0.03068705    -0.02100
C650        C  0.71524286  0.75945849  0.00159967     0.10400
C651        C  0.70196133  0.77055674  0.97407201    -0.12100
C652        C  0.67691238  0.79100832  0.97495945    -0.12100
C653        C  0.66456541  0.80101294  0.00336876     0.10400
C654        C  0.67684225  0.78919580  0.03154969    -0.02100
C655        C  0.70430708  0.76902539  0.08721497    -0.12200
C656        C  0.67982356  0.79041895  0.08799572    -0.12200
C657        C  0.66567778  0.80059479  0.06048542     0.10600
C658        C  0.64097790  0.82238153  0.06078814    -0.10300
C659        C  0.62735609  0.83096434  0.03283143    -0.04200
C660        C  0.64082556  0.82343934  0.00453507    -0.10300
H661        H  0.71132706  0.76390923  0.95172993     0.07900
H662        H  0.66750443  0.79945791  0.95327226     0.07900
H663        H  0.71441203  0.76152432  0.10892370     0.08100
H664        H  0.67169435  0.79873136  0.11026527     0.08100
H665        H  0.77431876  0.71452321  0.02789561     0.04500
H666        H  0.60973482  0.84904791  0.03313327     0.04500
C667        C  0.02688703  0.24444523  0.33160546    -0.05300
C668        C  0.03008779  0.27205389  0.34875883     0.00700
C669        C  0.04742811  0.27178701  0.37652910    -0.07900
C670        C  0.05792160  0.24304016  0.38819441    -0.05300
C671        C  0.05109316  0.21493269  0.37293570     0.00700
C672        C  0.03656355  0.21562171  0.34355792    -0.07800
C673        C  0.02997669  0.18589604  0.32566901     0.62600
H674        H  0.01349979  0.24517831  0.31039381     0.13300
H675        H  0.07053337  0.24213978  0.40987518     0.13300
C676        C  0.05397832  0.30183802  0.39381799     0.62800
F677        F  0.01594289  0.19180421  0.29743595    -0.22400
F678        F  0.01045890  0.16679005  0.34277137    -0.19700
F679        F  0.05739594  0.17042410  0.31993759    -0.19400
F680        F  0.02650007  0.31493778  0.40398122    -0.19400
F681        F  0.06891692  0.32258572  0.37418671    -0.19700
F682        F  0.07283125  0.29697287  0.41930966    -0.22400
C683        C  0.15811266  0.13819579  0.41082112    -0.05300
C684        C  0.13627317  0.13944728  0.38674131     0.00700
C685        C  0.14636460  0.13375211  0.35583143    -0.07900
C686        C  0.17757233  0.12575621  0.35047960    -0.05300
C687        C  0.19881702  0.12195813  0.37478624     0.00700
C688        C  0.18931312  0.12995441  0.40533176    -0.07800
C689        C  0.21091402  0.12840794  0.43297391     0.62600
H690        H  0.15065733  0.14343105  0.43426021     0.13300
H691        H  0.18486983  0.11942666  0.32729768     0.13300
C692        C  0.12427486  0.13444812  0.32842068     0.62800
F693        F  0.21004305  0.15641258  0.44880541    -0.22400
F694        F  0.24140664  0.12298953  0.42439612    -0.19700
F695        F  0.20118257  0.10483430  0.45268263    -0.19400
F696        F  0.11879299  0.16497893  0.32002489    -0.19400
F697        F  0.09653313  0.11980570  0.33586755    -0.19700
F698        F  0.13653333  0.11930925  0.30286642    -0.22400
C699        C  0.16943568  0.02885084  0.35154507    -0.05300
C700        C  0.19514898  0.02071363  0.36983286     0.00700
C701        C  0.19077087  0.00226478  0.39661430    -0.07900
C702        C  0.16033349  0.99361546  0.40513340    -0.05300
C703        C  0.13459838  0.00460108  0.38852664     0.00700
C704        C  0.13900817  0.02222717  0.36119405    -0.07800
C705        C  0.11158857  0.03568284  0.34358196     0.62600
H706        H  0.17327390  0.04383617  0.33164697     0.13300
H707        H  0.15630507  0.97932783  0.42547530     0.13300
C708        C  0.21811263  0.99357530  0.41682647     0.62800
F709        F  0.12100976  0.05249413  0.31780537    -0.22400
F710        F  0.09523397  0.05548747  0.36285819    -0.19700
F711        F  0.09202580  0.01207463  0.33364329    -0.19400
F712        F  0.22914810  0.01978806  0.43193804    -0.19400
F713        F  0.24160874  0.98137209  0.39866578    -0.19700
F714        F  0.20992432  0.97154553  0.43886693    -0.22400
C715        C  0.04625266  0.93079663  0.33980835    -0.05300
C716        C  0.05235217  0.92827229  0.37157824     0.00700
C717        C  0.05333864  0.89863053  0.38575990    -0.07900
C718        C  0.04452971  0.87248981  0.36824261    -0.05300
C719        C  0.03414247  0.87562415  0.33755587     0.00700
C720        C  0.03755712  0.90467186  0.32225074    -0.07800
C721        C  0.03165161  0.90807287  0.28770148     0.62600
H722        H  0.04809305  0.95353525  0.32899690     0.13300
H723        H  0.04184039  0.85004184  0.37948281     0.13300
C724        C  0.06262466  0.89496456  0.41945517     0.62800
F725        F  0.03464471  0.93871234  0.27799691    -0.22400
F726        F  0.00208632  0.89807438  0.28018285    -0.19700
F727        F  0.05304192  0.89046256  0.27154944    -0.19400
F728        F  0.04228598  0.91131319  0.43813309    -0.19400
F729        F  0.09241720  0.90641863  0.42372524    -0.19700
F730        F  0.06212850  0.86406364  0.42870597    -0.22400
C731        C  0.81410931  0.99704949  0.35894243    -0.05300
C732        C  0.81516690  0.99122007  0.39089565     0.00700
C733        C  0.78720555  0.99049339  0.40817121    -0.07900
C734        C  0.75935801  0.99901003  0.39327123    -0.05300
C735        C  0.75913677  0.00890463  0.36214386     0.00700
C736        C  0.78657079  0.00597200  0.34415628    -0.07800
C737        C  0.78735282  0.01456414  0.30995734     0.62600
H738        H  0.83556939  0.99570293  0.34583652     0.13300
H739        H  0.73830396  0.00181421  0.40677778     0.13300
C740        C  0.78701521  0.98210406  0.44229452     0.62800
F741        F  0.78013001  0.04567263  0.30598572    -0.22400
F742        F  0.76614752  0.99642348  0.29399407    -0.19700
F743        F  0.81636476  0.00963997  0.29696138    -0.19400
F744        F  0.80332813  0.00441230  0.45878890    -0.19400
F745        F  0.80077850  0.95337748  0.44659255    -0.19700
F746        F  0.75707461  0.98051062  0.45408258    -0.22400
C747        C  0.90081728  0.91826122  0.35048887    -0.05300
C748        C  0.90100799  0.91858652  0.38296919     0.00700
C749        C  0.90966765  0.89154071  0.39944358    -0.07900
C750        C  0.92138589  0.86605207  0.38263367    -0.05300
C751        C  0.92451184  0.86713360  0.35016705     0.00700
C752        C  0.91204440  0.89274036  0.33365001    -0.07800
C753        C  0.91155395  0.89367171  0.29842335     0.62600
H754        H  0.89234472  0.93866087  0.33841291     0.13300
H755        H  0.93113158  0.84634713  0.39487367     0.13300
C756        C  0.90677766  0.88983990  0.43445313     0.62800
F757        F  0.89935726  0.92129476  0.28731555    -0.22400
F758        F  0.89326716  0.86956060  0.28743635    -0.19700
F759        F  0.94120962  0.89079506  0.28657757    -0.19400
F760        F  0.87630524  0.89532659  0.44305232    -0.19400
F761        F  0.92582040  0.91194011  0.44806464    -0.19700
F762        F  0.91516775  0.86087220  0.44572452    -0.22400
C763        C  0.91432259  0.27650201  0.39042949    -0.05300
C764        C  0.92225858  0.27787757  0.35877353     0.00700
C765        C  0.91469414  0.25224131  0.33937344    -0.07900
C766        C  0.90226341  0.22508975  0.35288686    -0.05300
C767        C  0.89744073  0.22261351  0.38493213     0.00700
C768        C  0.90174470  0.24919222  0.40389207    -0.07800
C769        C  0.89291048  0.24870041  0.43796112     0.62600
H770        H  0.92057440  0.29609749  0.40499749     0.13300
H771        H  0.89763645  0.20480230  0.33867187     0.13300
C772        C  0.92187348  0.25261157  0.30483301     0.62800
F773        F  0.89828008  0.27723075  0.45199379    -0.22400
F774        F  0.90998672  0.22652578  0.45359345    -0.19700
F775        F  0.86162302  0.24167730  0.44083950    -0.19400
F776        F  0.95343975  0.25625337  0.29993673    -0.19400
F777        F  0.90627865  0.27687121  0.29082834    -0.19700
F778        F  0.91266233  0.22525590  0.29046250    -0.22400
C779        C  0.78247968  0.12327306  0.34207787    -0.05300
C780        C  0.75848560  0.11794740  0.36353721     0.00700
C781        C  0.76314554  0.12669359  0.39488931    -0.07900
C782        C  0.79275683  0.13697789  0.40440358    -0.05300
C783        C  0.81755862  0.13957613  0.38339231     0.00700
C784        C  0.81213439  0.13368518  0.35144610    -0.07800
C785        C  0.83797181  0.13661628  0.32752989     0.62600
H786        H  0.77871386  0.11609649  0.31830470     0.13300
H787        H  0.79664905  0.14264655  0.42857921     0.13300
C788        C  0.73784378  0.12396451  0.41922341     0.62800
F789        F  0.82898227  0.12518744  0.29889188    -0.22400
F790        F  0.86368874  0.11998613  0.33706918    -0.19700
F791        F  0.84612904  0.16757114  0.32376315    -0.19400
F792        F  0.74621848  0.10197581  0.44108066    -0.19400
F793        F  0.70945085  0.11550366  0.40669609    -0.19700
F794        F  0.73425294  0.15245461  0.43373817    -0.22400
C795        C  0.03300271  0.26172612  0.70765713    -0.05300
C796        C  0.03176913  0.28653000  0.68655394     0.00700
C797        C  0.04341310  0.28227621  0.65618130    -0.07900
C798        C  0.05227755  0.25214641  0.64669219    -0.05300
C799        C  0.04968819  0.22654137  0.66685229     0.00700
C800        C  0.04084552  0.23146691  0.69817285    -0.07800
C801        C  0.03789159  0.20464739  0.72110621     0.62600
H802        H  0.02452903  0.26563706  0.73095141     0.13300
H803        H  0.06056243  0.24822575  0.62330292     0.13300
C804        C  0.04588155  0.30969269  0.63414978     0.62800
F805        F  0.02413744  0.21391716  0.74861346    -0.22400
F806        F  0.06692789  0.19303324  0.72808179    -0.19700
F807        F  0.01975003  0.18113306  0.70856944    -0.19400
F808        F  0.06229269  0.33352878  0.64833966    -0.19400
F809        F  0.01662010  0.32031925  0.62645574    -0.19700
F810        F  0.06126639  0.30178622  0.60709142    -0.22400
C811        C  0.18113705  0.13191903  0.67219829    -0.05300
C812        C  0.18017368  0.12136171  0.70303120     0.00700
C813        C  0.15260881  0.12537717  0.72056457    -0.07900
C814        C  0.12563313  0.13562246  0.70534641    -0.05300
C815        C  0.12571643  0.14230090  0.67348757     0.00700
C816        C  0.15419049  0.14248453  0.65707880    -0.07800
C817        C  0.15574105  0.15285883  0.62351378     0.62600
H818        H  0.20233979  0.12852563  0.65906993     0.13300
H819        H  0.10400102  0.13779929  0.71802805     0.13300
C820        C  0.15158443  0.11750505  0.75491482     0.62800
F821        F  0.18599519  0.15360031  0.61255150    -0.22400
F822        F  0.14359169  0.18250450  0.62062846    -0.19700
F823        F  0.13874503  0.13248020  0.60533343    -0.19400
F824        F  0.17308088  0.13569258  0.77048429    -0.19400
F825        F  0.15848322  0.08644275  0.75966345    -0.19700
F826        F  0.12260138  0.12310964  0.76766512    -0.22400
C827        C  0.91379206  0.28007826  0.66010338    -0.05300
C828        C  0.92581007  0.28263888  0.69029282     0.00700
C829        C  0.92517615  0.25615056  0.71008912    -0.07900
C830        C  0.91520118  0.22747372  0.69794882    -0.05300
C831        C  0.90614062  0.22441862  0.66695050     0.00700
C832        C  0.90414525  0.25116228  0.64793283    -0.07800
C833        C  0.89241841  0.24894951  0.61488032     0.62600
H834        H  0.91500603  0.30035326  0.64516337     0.13300
H835        H  0.91521508  0.20677772  0.71235509     0.13300
C836        C  0.93666162  0.25759898  0.74339522     0.62800
F837        F  0.89162316  0.27784031  0.60060749    -0.22400
F838        F  0.86264032  0.23664966  0.61479868    -0.19700
F839        F  0.91168236  0.22990160  0.59769028    -0.19400
F840        F  0.91950853  0.27911877  0.75983041    -0.19400
F841        F  0.96764531  0.26605881  0.74418646    -0.19700
F842        F  0.93369086  0.22915519  0.75832838    -0.22400
C843        C  0.80149922  0.11707121  0.72091404    -0.05300
C844        C  0.77273911  0.12362630  0.70710330     0.00700
C845        C  0.77181808  0.14193892  0.67987880    -0.07900
C846        C  0.80006687  0.15089336  0.66579809    -0.05300
C847        C  0.82874739  0.14108953  0.67776946     0.00700
C848        C  0.82964741  0.12481740  0.70625220    -0.07800
C849        C  0.86021817  0.11455852  0.72033054     0.62600
H850        H  0.80167790  0.10254596  0.74147686     0.13300
H851        H  0.80000018  0.16479424  0.64483138     0.13300
C852        C  0.74097857  0.15115277  0.66572021     0.62800
F853        F  0.85588129  0.09850935  0.74787070    -0.22400
F854        F  0.87874211  0.14027950  0.72629924    -0.19700
F855        F  0.87546520  0.09513668  0.69987041    -0.19400
F856        F  0.72354723  0.16696984  0.68754169    -0.19400
F857        F  0.72472043  0.12492990  0.65635339    -0.19700
F858        F  0.74496013  0.17036322  0.64020867    -0.22400
C859        C  0.90773755  0.91630954  0.70293149    -0.05300
C860        C  0.90074051  0.91650048  0.67125000     0.00700
C861        C  0.89862802  0.88790220  0.65509422    -0.07900
C862        C  0.90613492  0.86012319  0.67084721    -0.05300
C863        C  0.91667934  0.86043479  0.70170711     0.00700
C864        C  0.91511291  0.88873719  0.71862770    -0.07800
C865        C  0.92352958  0.89159186  0.75259236     0.62600
H866        H  0.90781724  0.93817127  0.71554529     0.13300
H867        H  0.90778839  0.83848379  0.65803949     0.13300
C868        C  0.88968663  0.88693982  0.62116818     0.62800
F869        F  0.95108371  0.90806331  0.75541370    -0.22400
F870        F  0.92671954  0.86299842  0.76686664    -0.19700
F871        F  0.90036187  0.90766770  0.76798410    -0.19400
F872        F  0.91122193  0.90354357  0.60388002    -0.19400
F873        F  0.86064590  0.89999408  0.61729706    -0.19700
F874        F  0.88866328  0.85672710  0.60993009    -0.22400
C875        C  0.79693514  0.99766781  0.65673125    -0.05300
C876        C  0.82482962  0.00059652  0.67338146     0.00700
C877        C  0.82415728  0.01144031  0.70436893    -0.07900
C878        C  0.79565313  0.02084642  0.71707779    -0.05300
C879        C  0.76820593  0.02058129  0.69954387     0.00700
C880        C  0.76845888  0.00773212  0.66940361    -0.07800
C881        C  0.73859194  0.00518358  0.65100285     0.62600
H882        H  0.79774870  0.98799557  0.63356608     0.13300
H883        H  0.79504380  0.03129432  0.73992910     0.13300
C884        C  0.85367501  0.01422862  0.72348022     0.62800
F885        F  0.74297233  0.98944516  0.62336815    -0.22400
F886        F  0.72730999  0.03452641  0.64428108    -0.19700
F887        F  0.71664599  0.98908890  0.66829052    -0.19400
F888        F  0.87531644  0.03220484  0.70778025    -0.19400
F889        F  0.86595752  0.98502300  0.72874256    -0.19700
F890        F  0.84825518  0.02802589  0.75196877    -0.22400
C891        C  0.12922557  0.99212148  0.69922088    -0.05300
C892        C  0.12786562  0.99056060  0.66682046     0.00700
C893        C  0.15520356  0.99555151  0.64924463    -0.07900
C894        C  0.18231698  0.00543544  0.66478343    -0.05300
C895        C  0.18245871  0.01094992  0.69697349     0.00700
C896        C  0.15598805  0.00220009  0.71473201    -0.07800
C897        C  0.15349807  0.00502277  0.74973937     0.62600
H898        H  0.10852840  0.98660753  0.71261090     0.13300
H899        H  0.20262452  0.01231287  0.65150034     0.13300
C900        C  0.15569819  0.99044417  0.61445345     0.62800
F901        F  0.12986903  0.02545932  0.75714840    -0.22400
F902        F  0.18041902  0.01540759  0.76365428    -0.19700
F903        F  0.14634298  0.97608241  0.76207898    -0.19400
F904        F  0.13435733  0.00955101  0.60010878    -0.19400
F905        F  0.14836944  0.95968349  0.60811496    -0.19700
F906        F  0.18463098  0.99690990  0.60183303    -0.22400
C907        C  0.04421574  0.90856096  0.69693227    -0.05300
C908        C  0.04528534  0.91209209  0.66458560     0.00700
C909        C  0.04003942  0.88584172  0.64546436    -0.07900
C910        C  0.03055219  0.85758576  0.65945545    -0.05300
C911        C  0.02594653  0.85516469  0.69174277     0.00700
C912        C  0.03497547  0.88041425  0.71091490    -0.07800
C913        C  0.03338483  0.87805698  0.74605757     0.62600
H914        H  0.05015412  0.92846473  0.71122093     0.13300
H915        H  0.02316604  0.83827358  0.64502983     0.13300
C916        C  0.04378220  0.88793240  0.61053468     0.62800
F917        F  0.04252190  0.90553552  0.76024179    -0.22400
F918        F  0.05297839  0.85471724  0.75601992    -0.19700
F919        F  0.00345463  0.87133121  0.75572653    -0.19400
F920        F  0.07288174  0.89975514  0.60326008    -0.19400
F921        F  0.02131902  0.90728108  0.59834455    -0.19700
F922        F  0.04082846  0.85903326  0.59658598    -0.22400
C923        C  0.30168164  0.14381245  0.18776103    -0.05300
C924        C  0.33415312  0.14571032  0.18490656     0.00700
C925        C  0.35271845  0.14323137  0.21181437    -0.07900
C926        C  0.33850792  0.13352224  0.23966631    -0.05300
C927        C  0.30645261  0.12717879  0.24123443     0.00700
C928        C  0.28741912  0.13551184  0.21590306    -0.07800
C929        C  0.25225288  0.13450911  0.21843584     0.62600
H930        H  0.28757646  0.14814409  0.16745175     0.13300
H931        H  0.35276326  0.12750755  0.25943477     0.13300
C932        C  0.38712879  0.15092277  0.21114045     0.62800
F933        F  0.23815596  0.14557821  0.19181790    -0.22400
F934        F  0.24286293  0.15297982  0.24291016    -0.19700
F935        F  0.24202120  0.10439429  0.22344643    -0.19400
F936        F  0.39143684  0.18068226  0.19948096    -0.19400
F937        F  0.40272039  0.12989211  0.19262436    -0.19700
F938        F  0.40002406  0.14992160  0.24050201    -0.22400
C939        C  0.34003097  0.27450777  0.08407389    -0.05300
C940        C  0.30873178  0.27502709  0.07450436     0.00700
C941        C  0.28992724  0.24814650  0.07927795    -0.07900
C942        C  0.30362195  0.22107819  0.09130620    -0.05300
C943        C  0.33532204  0.21989653  0.09842803     0.00700
C944        C  0.35363138  0.24727243  0.09629584    -0.07800
C945        C  0.38723394  0.24745586  0.10692917     0.62600
H946        H  0.35431403  0.29490422  0.07964962     0.13300
H947        H  0.28983786  0.20010037  0.09443602     0.13300
C948        C  0.25590905  0.24737797  0.06984830     0.62800
F949        F  0.40410142  0.22565076  0.09048098    -0.22400
F950        F  0.38845798  0.24021884  0.13815477    -0.19700
F951        F  0.40117785  0.27628991  0.10263566    -0.19400
F952        F  0.25311816  0.25190374  0.03826395    -0.19400
F953        F  0.23998512  0.27053973  0.08528354    -0.19700
F954        F  0.24188847  0.21917030  0.07707036    -0.22400
C955        C  0.30147951  0.99552994  0.18741715    -0.05300
C956        C  0.33379576  0.99185562  0.18557521     0.00700
C957        C  0.35225640  0.99739178  0.21208569    -0.07900
C958        C  0.33782355  0.00908998  0.23899345    -0.05300
C959        C  0.30585296  0.01585246  0.23972883     0.00700
C960        C  0.28707318  0.00732052  0.21414937    -0.07800
C961        C  0.25213449  0.01214448  0.21453412     0.62600
H962        H  0.28769712  0.99018969  0.16713790     0.13300
H963        H  0.35191422  0.01622352  0.25855058     0.13300
C964        C  0.38703910  0.99184386  0.21156426     0.62800
F965        F  0.23828846  0.00192033  0.18741133    -0.22400
F966        F  0.24538980  0.04334249  0.21799069    -0.19700
F967        F  0.23914328  0.99567229  0.23888773    -0.24800
F968        F  0.40103320  0.01147928  0.19023323    -0.19400
F969        F  0.39289603  0.96125331  0.20344575    -0.19700
F970        F  0.40043503  0.99738131  0.24019605    -0.22400
C971        C  0.35265918  0.88043148  0.10744075    -0.05300
C972        C  0.33282270  0.90619659  0.11042985     0.00700
C973        C  0.30019676  0.90157275  0.10734901    -0.07900
C974        C  0.28887101  0.87167764  0.09987984    -0.05300
C975        C  0.30900072  0.84733249  0.09200821     0.00700
C976        C  0.34115328  0.85096292  0.09808664    -0.07800
C977        C  0.36299776  0.82385817  0.09301844     0.62600
H978        H  0.37731275  0.88385801  0.11124336     0.13300
H979        H  0.26431591  0.86837109  0.09534315     0.13300
C980        C  0.27742838  0.92852413  0.10935830     0.62800
F981        F  0.39285795  0.83079380  0.10279603    -0.22400
F982        F  0.36417662  0.81617951  0.06192335    -0.19700
F983        F  0.35238378  0.79831877  0.10961456    -0.19400
F984        F  0.28731698  0.95273979  0.09050946    -0.19400
F985        F  0.27519020  0.93887048  0.13953879    -0.19700
F986        F  0.24787546  0.91992818  0.09989376    -0.22400
C987        C  0.29811627  0.99434428  0.87000288    -0.05300
C988        C  0.33039820  0.99300613  0.87476304     0.00700
C989        C  0.35051375  0.99504899  0.84880283    -0.07900
C990        C  0.33764612  0.00186481  0.81949049    -0.05300
C991        C  0.30563685  0.00769649  0.81577059     0.00700
C992        C  0.28531185  0.00089251  0.84079780    -0.07800
C993        C  0.25019620  0.00178201  0.83698317     0.62600
H994        H  0.28289699  0.99074343  0.88972818     0.13300
H995        H  0.35296417  0.00710022  0.80019616     0.13300
C996        C  0.38537905  0.99099950  0.85207565     0.62800
F997        F  0.23485837  0.99399473  0.86416529    -0.22400
F998        F  0.24134443  0.98051868  0.81460034    -0.19700
F999        F  0.24057782  0.03118168  0.82829502    -0.19400
F1000       F  0.39168895  0.96352469  0.86758141    -0.19400
F1001       F  0.39785971  0.01575713  0.86838529    -0.19700
F1002       F  0.40001165  0.98986469  0.82350681    -0.22400
C1003       C  0.29353316  0.92248245  0.97576175    -0.05300
C1004       C  0.32272114  0.91977482  0.96169469     0.00700
C1005       C  0.33661456  0.89024997  0.95819931    -0.07900
C1006       C  0.32130931  0.86414423  0.97061484    -0.05300
C1007       C  0.29335259  0.86713071  0.98706481     0.00700
C1008       C  0.27859293  0.89656120  0.98903195    -0.07800
C1009       C  0.24806433  0.90090925  0.00630786     0.62600
H1010       H  0.28308504  0.94535952  0.97712582     0.13300
H1011       H  0.33239463  0.84153537  0.97007247     0.13300
C1012       C  0.36794893  0.88665868  0.94248614     0.62800
F1013       F  0.22503526  0.88323167  0.99248801    -0.22400
F1014       F  0.23855228  0.93169411  0.00604393    -0.19700
F1015       F  0.25113572  0.89184137  0.03687721    -0.19400
F1016       F  0.38981471  0.90511374  0.95724368    -0.19400
F1017       F  0.36575365  0.89567318  0.91180642    -0.19700
F1018       F  0.37822449  0.85614184  0.94335317    -0.22400
C1019       C  0.34680080  0.24228208  0.94917590    -0.05300
C1020       C  0.32919260  0.21515345  0.95423948     0.00700
C1021       C  0.29730108  0.21769782  0.96213503    -0.07900
C1022       C  0.28491131  0.24748088  0.96760083    -0.05300
C1023       C  0.30380135  0.27426329  0.96689120     0.00700
C1024       C  0.33433263  0.27193105  0.95494642    -0.07800
C1025       C  0.35483059  0.30022886  0.94991982     0.62600
H1026       H  0.37054350  0.24028990  0.94096576     0.13300
H1027       H  0.26147257  0.24967891  0.97650660     0.13300
C1028       C  0.27696672  0.18891971  0.96640999     0.62800
F1029       F  0.36571428  0.30025358  0.91973046    -0.22400
F1030       F  0.37983644  0.29912797  0.96995802    -0.19700
F1031       F  0.33894005  0.32776618  0.95473992    -0.19400
F1032       F  0.29024066  0.16935541  0.98810477    -0.19400
F1033       F  0.27400573  0.17319028  0.93862560    -0.19700
F1034       F  0.24741661  0.19643113  0.97660232    -0.22400
C1035       C  0.33226964  0.12812766  0.82191552    -0.05300
C1036       C  0.30174985  0.11625227  0.82265274     0.00700
C1037       C  0.28526093  0.11607276  0.85120325    -0.07900
C1038       C  0.30123339  0.12351417  0.87841804    -0.05300
C1039       C  0.33251850  0.13248796  0.87798004     0.00700
C1040       C  0.34804740  0.13627201  0.84932979    -0.07800
C1041       C  0.38146224  0.14753667  0.84800834     0.62600
H1042       H  0.34475163  0.12764396  0.80008851     0.13300
H1043       H  0.28900174  0.12256571  0.90042364     0.13300
C1044       C  0.25137030  0.10670833  0.85471714     0.62800
F1045       F  0.39201602  0.15032662  0.81778974    -0.22400
F1046       F  0.40026278  0.12656566  0.86336726    -0.19700
F1047       F  0.38402317  0.17641453  0.86201022    -0.19400
F1048       F  0.24923089  0.07975830  0.87221796    -0.19400
F1049       F  0.23666705  0.10176353  0.82678361    -0.19700
F1050       F  0.23565085  0.13023406  0.86995199    -0.22400
C1051       C  0.67121985  0.23117215  0.06396801    -0.05300
C1052       C  0.65815773  0.26022276  0.07103526     0.00700
C1053       C  0.63379010  0.26218607  0.09295218    -0.07900
C1054       C  0.62149873  0.23447176  0.10531541    -0.05300
C1055       C  0.63222687  0.20530862  0.09543781     0.00700
C1056       C  0.65818628  0.20338963  0.07541704    -0.07800
C1057       C  0.67113592  0.17219378  0.06519723     0.62600
H1058       H  0.68944217  0.23028124  0.04662011     0.13300
H1059       H  0.60231686  0.23525073  0.12159877     0.13300
C1060       C  0.61965143  0.29335590  0.10153160     0.62800
F1061       F  0.69789026  0.17569504  0.04762230    -0.22400
F1062       F  0.64934130  0.15656764  0.04746213    -0.19700
F1063       F  0.67832813  0.15432429  0.09083594    -0.19400
F1064       F  0.60532232  0.30636701  0.07600143    -0.19400
F1065       F  0.64270597  0.31337209  0.11179123    -0.19700
F1066       F  0.59770351  0.29035790  0.12486579    -0.22400
C1067       C  0.65662913  0.11745423  0.22223081    -0.05300
C1068       C  0.63371967  0.11622966  0.24535215     0.00700
C1069       C  0.60353784  0.12755581  0.23880354    -0.07900
C1070       C  0.59657833  0.13700934  0.20832807    -0.05300
C1071       C  0.61871792  0.13488936  0.18452041     0.00700
C1072       C  0.64945894  0.12543951  0.19155900    -0.07800
C1073       C  0.67411941  0.12143489  0.16657630     0.62600
H1074       H  0.67945432  0.10841273  0.22763121     0.13300
H1075       H  0.57347593  0.14505403  0.20257898     0.13300
C1076       C  0.57873892  0.12873638  0.26380176     0.62800
F1077       F  0.69959485  0.10517636  0.17742276    -0.22400
F1078       F  0.68446729  0.15025006  0.15655080    -0.19700
F1079       F  0.66202574  0.10498866  0.14176804    -0.19400
F1080       F  0.59012977  0.14479662  0.28915792    -0.19400
F1081       F  0.57037615  0.09895324  0.27289009    -0.19700
F1082       F  0.55225557  0.14376317  0.25357591    -0.22400
C1083       C  0.58033910  0.24844907  0.96954940    -0.05300
C1084       C  0.59765037  0.23208062  0.94726616     0.00700
C1085       C  0.61912480  0.25033756  0.92944937    -0.07900
C1086       C  0.63280119  0.27660842  0.94342447    -0.05300
C1087       C  0.62015428  0.28892492  0.97066238     0.00700
C1088       C  0.59000912  0.27821116  0.97940835    -0.07800
C1089       C  0.56992183  0.29551010  0.00236290     0.62600
H1090       H  0.56047866  0.23786803  0.98080451     0.13300
H1091       H  0.65401600  0.28624936  0.93376196     0.13300
C1092       C  0.62595873  0.24489184  0.89541258     0.62800
F1093       F  0.54127452  0.30110904  0.98904478    -0.22400
F1094       F  0.58300283  0.32384821  0.01058669    -0.19700
F1095       F  0.56563954  0.27766255  0.02876187    -0.19400
F1096       F  0.60758401  0.22138347  0.88316973    -0.19400
F1097       F  0.65700758  0.23774102  0.89121794    -0.19700
F1098       F  0.61963172  0.27190547  0.87912663    -0.22400
C1099       C  0.62661680  0.14234153  0.87160527    -0.05300
C1100       C  0.64003782  0.13783137  0.90087002     0.00700
C1101       C  0.67089954  0.12718428  0.90308486    -0.07900
C1102       C  0.68625332  0.11797102  0.87574267    -0.05300
C1103       C  0.67131474  0.11903469  0.84672756     0.00700
C1104       C  0.64191051  0.13332624  0.84433602    -0.07800
C1105       C  0.62613113  0.13731584  0.81316531     0.62600
H1106       H  0.60359874  0.15238941  0.87040680     0.13300
H1107       H  0.70864243  0.10663539  0.87720764     0.13300
C1108       C  0.68676052  0.12450506  0.93429066     0.62800
F1109       F  0.59872711  0.15388773  0.81573156    -0.22400
F1110       F  0.61927714  0.10852992  0.80044946    -0.19700
F1111       F  0.64563918  0.15348094  0.79329868    -0.19400
F1112       F  0.67073796  0.10338521  0.95264038    -0.19400
F1113       F  0.68710001  0.15323161  0.94882009    -0.19700
F1114       F  0.71716635  0.11452144  0.93139710    -0.22400
C1115       C  0.64104910  0.90194447  0.96914717    -0.05300
C1116       C  0.60983093  0.90395586  0.96025823     0.00700
C1117       C  0.59146867  0.87662727  0.95860333    -0.07900
C1118       C  0.60435296  0.84829430  0.96868856    -0.05300
C1119       C  0.63490175  0.84678345  0.98002931     0.00700
C1120       C  0.65425132  0.87366080  0.97846241    -0.07800
C1121       C  0.68841458  0.87287263  0.98759236     0.62600
H1122       H  0.65491726  0.92305619  0.96920181     0.13300
H1123       H  0.58980996  0.82768614  0.97056886     0.13300
C1124       C  0.55822286  0.87770757  0.94725252     0.62800
F1125       F  0.70267329  0.90167026  0.98400642    -0.22400
F1126       F  0.70399783  0.85193546  0.96896707    -0.19700
F1127       F  0.69162624  0.86410099  0.01820142    -0.19400
F1128       F  0.55739031  0.89030207  0.91775445    -0.19400
F1129       F  0.54071366  0.89594404  0.96700487    -0.19700
F1130       F  0.54489652  0.84828304  0.94612780    -0.22400
C1131       C  0.61141164  0.99075735  0.85585069    -0.05300
C1132       C  0.62630977  0.98625330  0.88438640     0.00700
C1133       C  0.65901889  0.99011770  0.88645173    -0.07900
C1134       C  0.67535246  0.00092080  0.86034244    -0.05300
C1135       C  0.65984955  0.00939019  0.83309640     0.00700
C1136       C  0.62787524  0.00223341  0.82992594    -0.07800
C1137       C  0.61139419  0.00784591  0.79940116     0.62600
H1138       H  0.58669278  0.98612144  0.85432685     0.13300
H1139       H  0.69982713  0.00668046  0.86222935     0.13300
C1140       C  0.67642795  0.98453192  0.91657238     0.62800
F1141       F  0.58050342  0.99875692  0.80070272    -0.22400
F1142       F  0.62584414  0.99082607  0.77634600    -0.19700
F1143       F  0.61252402  0.03910664  0.79165322    -0.19400
F1144       F  0.67625188  0.95311861  0.92347084    -0.19400
F1145       F  0.66253548  0.00081682  0.94049837    -0.19700
F1146       F  0.70713798  0.99412772  0.91468451    -0.22400
C1147       C  0.65686277  0.01976699  0.21270345    -0.05300
C1148       C  0.63904158  0.01260672  0.23915174     0.00700
C1149       C  0.61268753  0.99303871  0.23620818    -0.07900
C1150       C  0.60424391  0.98221545  0.20650325    -0.05300
C1151       C  0.62057085  0.99171335  0.17983047     0.00700
C1152       C  0.64765043  0.01027473  0.18290648    -0.07800
C1153       C  0.66619698  0.02069639  0.15474590     0.62600
H1154       H  0.67647945  0.03549283  0.21532990     0.13300
H1155       H  0.58400420  0.96737212  0.20368703     0.13300
C1156       C  0.59306440  0.98492126  0.26431464     0.62800
F1157       F  0.69071943  0.04007536  0.16270764    -0.22400
F1158       F  0.64727490  0.03674800  0.13446147    -0.19700
F1159       F  0.67821953  0.99498914  0.13987344    -0.19400
F1160       F  0.57968147  0.01158802  0.27624006    -0.19400
F1161       F  0.61159229  0.97153131  0.28677508    -0.19700
F1162       F  0.56951265  0.96408399  0.25707074    -0.22400
C1163       C  0.59739160  0.88230111  0.10551932    -0.05300
C1164       C  0.61827180  0.90730359  0.10187983     0.00700
C1165       C  0.64902444  0.90135546  0.09179221    -0.07900
C1166       C  0.65766218  0.87055019  0.08505895    -0.05300
C1167       C  0.63596014  0.84603213  0.08541314     0.00700
C1168       C  0.60570239  0.85162598  0.09722265    -0.07800
C1169       C  0.58244084  0.82512052  0.10067393     0.62600
H1170       H  0.57432153  0.88713920  0.11430752     0.13300
H1171       H  0.68068024  0.86589859  0.07607909     0.13300
C1172       C  0.67226120  0.92759729  0.08669660     0.62800
F1173       F  0.55454279  0.83525895  0.11301335    -0.22400
F1174       F  0.59458262  0.80283083  0.12031114    -0.19700
F1175       F  0.57626056  0.81154244  0.07229101    -0.19400
F1176       F  0.68139189  0.93940534  0.11498243    -0.19400
F1177       F  0.65898420  0.95104440  0.06920029    -0.19700
F1178       F  0.69855755  0.91754442  0.07117286    -0.22400
C1179       C  0.05508775  0.43029705  0.19665835    -0.05300
C1180       C  0.04404850  0.41581166  0.16957503     0.00700
C1181       C  0.02492531  0.38902203  0.17192169    -0.07900
C1182       C  0.01614074  0.37844398  0.20149102    -0.05300
C1183       C  0.02460457  0.39472245  0.22846747     0.00700
C1184       C  0.04513238  0.42042385  0.22625507    -0.07800
C1185       C  0.05533882  0.43776720  0.25509892     0.62600
H1186       H  0.07060705  0.45013226  0.19435528     0.13300
H1187       H  0.99977873  0.35926294  0.20366779     0.13300
C1188       C  0.01274964  0.37257759  0.14324353     0.62800
F1189       F  0.07821480  0.45962498  0.24856852    -0.22400
F1190       F  0.06714206  0.41688677  0.27641937    -0.19700
F1191       F  0.03024601  0.45296198  0.26812232    -0.19400
F1192       F  0.03723502  0.36350198  0.12467064    -0.19400
F1193       F  0.99390819  0.39258068  0.12672471    -0.19700
F1194       F  0.99557034  0.34622729  0.15065073    -0.22400
C1195       C  0.15351808  0.43672564  0.09837977    -0.05300
C1196       C  0.12812508  0.41712132  0.09191009     0.00700
C1197       C  0.13339397  0.38720239  0.07918849    -0.07900
C1198       C  0.16390346  0.37872119  0.07137497    -0.05300
C1199       C  0.18894081  0.39955276  0.07482502     0.00700
C1200       C  0.18400613  0.42846138  0.08977797    -0.07800
C1201       C  0.21082084  0.45079090  0.09534223     0.62600
H1202       H  0.14911038  0.45904021  0.10921165     0.13300
H1203       H  0.16803937  0.35689023  0.05948184     0.13300
C1204       C  0.10681039  0.36467162  0.07309292     0.62800
F1205       F  0.20205691  0.47558901  0.11385987    -0.22400
F1206       F  0.22160766  0.46255251  0.06746755    -0.19700
F1207       F  0.23469463  0.43521704  0.11003051    -0.19400
F1208       F  0.08424784  0.37895420  0.05535630    -0.19400
F1209       F  0.09403336  0.35530558  0.10097264    -0.19700
F1210       F  0.11657468  0.33830761  0.05743344    -0.22400
C1211       C  0.16163843  0.38499472  0.97393938    -0.05300
C1212       C  0.18867033  0.40343462  0.97194095     0.00700
C1213       C  0.18709824  0.43316374  0.95771156    -0.07900
C1214       C  0.15803199  0.44423187  0.94762392    -0.05300
C1215       C  0.13074703  0.42673392  0.95208845     0.00700
C1216       C  0.13252276  0.39634909  0.96463490    -0.07800
C1217       C  0.10348579  0.37657278  0.96915606     0.62600
H1218       H  0.16307287  0.36270773  0.98566941     0.13300
H1219       H  0.15622641  0.46695102  0.93683219     0.13300
C1220       C  0.21602414  0.45316891  0.95390426     0.62800
F1221       F  0.11011180  0.34803702  0.98251243    -0.22400
F1222       F  0.08946592  0.37110460  0.94085875    -0.19700
F1223       F  0.08285346  0.39199564  0.98830274    -0.19400
F1224       F  0.23856119  0.43635090  0.93843654    -0.19400
F1225       F  0.22734309  0.46199034  0.98256530    -0.19700
F1226       F  0.21008546  0.47993210  0.93701139    -0.22400
C1227       C  0.04379914  0.43573326  0.81173605    -0.05300
C1228       C  0.03295454  0.40477553  0.81044719     0.00700
C1229       C  0.03724525  0.38494240  0.83640530    -0.07900
C1230       C  0.04905481  0.39778141  0.86388028    -0.05300
C1231       C  0.05608734  0.42958602  0.86624282     0.00700
C1232       C  0.05534820  0.44859124  0.83948893    -0.07800
C1233       C  0.06596138  0.48232774  0.84059250     0.62600
H1234       H  0.04004554  0.45061474  0.79181239     0.13300
H1235       H  0.05111436  0.38346287  0.88445992     0.13300
C1236       C  0.02668389  0.35105392  0.83608100     0.62800
F1237       F  0.06566914  0.49596965  0.81150227    -0.22400
F1238       F  0.09599499  0.48394700  0.85188410    -0.19700
F1239       F  0.04656931  0.49921814  0.85976788    -0.19400
F1240       F  0.04097651  0.33546197  0.81201174    -0.19400
F1241       F  0.99480645  0.34927873  0.83243325    -0.19700
F1242       F  0.03421630  0.33581894  0.86332251    -0.22400
C1243       C  0.80825823  0.39315415  0.94630233    -0.05300
C1244       C  0.81354163  0.42541968  0.94482993     0.00700
C1245       C  0.78808149  0.44589262  0.94859825    -0.07900
C1246       C  0.75898778  0.43332276  0.95754935    -0.05300
C1247       C  0.75504915  0.40123930  0.96350506     0.00700
C1248       C  0.77940347  0.38061218  0.95528487    -0.07800
C1249       C  0.77587999  0.34547634  0.95854292     0.62600
H1250       H  0.82760559  0.37774535  0.94181380     0.13300
H1251       H  0.74035841  0.44888458  0.96411742     0.13300
C1252       C  0.79173431  0.48082729  0.94447375     0.62800
F1253       F  0.80165011  0.32983602  0.94740125    -0.22400
F1254       F  0.75036939  0.33550197  0.94178815    -0.19700
F1255       F  0.77205054  0.33732384  0.98931577    -0.19400
F1256       F  0.80710094  0.48726844  0.91699532    -0.19400
F1257       F  0.80847732  0.49310867  0.96891959    -0.19700
F1258       F  0.76318399  0.49553206  0.94354653    -0.22400
C1259       C  0.90098684  0.44169444  0.84589909    -0.05300
C1260       C  0.90045230  0.42022060  0.87038516     0.00700
C1261       C  0.90884929  0.38882771  0.86478077    -0.07900
C1262       C  0.92030343  0.38075755  0.83529306    -0.05300
C1263       C  0.92414034  0.40314395  0.81181775     0.00700
C1264       C  0.91270594  0.43366972  0.81658401    -0.07800
C1265       C  0.91345052  0.45877395  0.79187238     0.62600
H1266       H  0.89298760  0.46527003  0.84998094     0.13300
H1267       H  0.92944135  0.35761454  0.83134780     0.13300
C1268       C  0.90748804  0.36443228  0.89027270     0.62800
F1269       F  0.88344027  0.46868039  0.78628451    -0.22400
F1270       F  0.92585579  0.44850152  0.76413486    -0.19700
F1271       F  0.93094480  0.48381018  0.80223361    -0.19400
F1272       F  0.87737056  0.36121233  0.90102590    -0.19400
F1273       F  0.92655086  0.37337916  0.91448468    -0.19700
F1274       F  0.91717546  0.33551746  0.87990476    -0.22400
C1275       C  0.90142250  0.43849591  0.20140107    -0.05300
C1276       C  0.90337826  0.41675377  0.17715919     0.00700
C1277       C  0.91181659  0.38553414  0.18389283    -0.07900
C1278       C  0.92028031  0.37780628  0.21437639    -0.05300
C1279       C  0.92159725  0.40033364  0.23790090     0.00700
C1280       C  0.91020265  0.43061666  0.23190139    -0.07800
C1281       C  0.90795344  0.45430865  0.25784716     0.62600
H1282       H  0.89360870  0.46185211  0.19611049     0.13300
H1283       H  0.92930040  0.35481469  0.21935837     0.13300
C1284       C  0.91344219  0.36075029  0.15878062     0.62800
F1285       F  0.89462095  0.48182429  0.24787336    -0.22400
F1286       F  0.93710841  0.46118875  0.26946646    -0.19700
F1287       F  0.88973586  0.44213009  0.28141993    -0.19400
F1288       F  0.93093768  0.37147204  0.13401058    -0.19400
F1289       F  0.88383899  0.35345315  0.14876901    -0.19700
F1290       F  0.92689776  0.33353398  0.16940671    -0.22400
C1291       C  0.79931134  0.37174150  0.06202457    -0.05300
C1292       C  0.77210411  0.38858936  0.06795733     0.00700
C1293       C  0.77327019  0.41559257  0.08667026    -0.07900
C1294       C  0.80217671  0.42541603  0.09828926    -0.05300
C1295       C  0.82966298  0.41003908  0.09003012     0.00700
C1296       C  0.82843250  0.38273366  0.07176888    -0.07800
C1297       C  0.85778759  0.36645559  0.06104095     0.62600
H1298       H  0.79786347  0.35174948  0.04676307     0.13300
H1299       H  0.80378301  0.44603401  0.11269039     0.13300
C1300       C  0.74419685  0.43441127  0.09308525     0.62800
F1301       F  0.85121495  0.34001120  0.04382714    -0.22400
F1302       F  0.87534313  0.35765448  0.08629365    -0.19700
F1303       F  0.87510020  0.38647248  0.04264935    -0.19400
F1304       F  0.74993357  0.45876321  0.11334779    -0.19400
F1305       F  0.72171999  0.41526549  0.10606322    -0.19700
F1306       F  0.73287722  0.44688551  0.06581429    -0.22400
C1307       C  0.04151415  0.75745751  0.15445809    -0.05300
C1308       C  0.04510926  0.72513911  0.15750313     0.00700
C1309       C  0.04229761  0.71103671  0.18708496    -0.07900
C1310       C  0.03447362  0.72976405  0.21254315    -0.05300
C1311       C  0.02680360  0.76126768  0.20876403     0.00700
C1312       C  0.03163003  0.77577526  0.17963839    -0.07800
C1313       C  0.02480343  0.81012197  0.17507585     0.62600
H1314       H  0.04542624  0.76795923  0.13193878     0.13300
H1315       H  0.03000893  0.71905388  0.23487978     0.13300
C1316       C  0.04583599  0.67605204  0.19145291     0.62800
F1317       F  0.03272079  0.82010489  0.14555880    -0.22400
F1318       F  0.04174808  0.82748792  0.19614599    -0.19700
F1319       F  0.99348720  0.81569890  0.17954471    -0.19400
F1320       F  0.07490750  0.66662854  0.18180100    -0.19400
F1321       F  0.02350631  0.66054861  0.17428932    -0.19700
F1322       F  0.04227329  0.66728177  0.22214497    -0.22400
C1323       C  0.18291273  0.72263453  0.11342250    -0.05300
C1324       C  0.19327054  0.71477667  0.08374017     0.00700
C1325       C  0.18283920  0.68593126  0.07107028    -0.07900
C1326       C  0.15488975  0.67299840  0.08216562    -0.05300
C1327       C  0.13980734  0.68589567  0.10802631     0.00700
C1328       C  0.15816424  0.70611378  0.12713484    -0.07800
C1329       C  0.15349974  0.71006244  0.16172736     0.62600
H1330       H  0.19240981  0.74286847  0.12511614     0.13300
H1331       H  0.14397620  0.65484176  0.06863194     0.13300
C1332       C  0.19718372  0.67179373  0.04229687     0.62800
F1333       F  0.18120587  0.70403044  0.17673919    -0.22400
F1334       F  0.13147809  0.68953609  0.17318925    -0.19700
F1335       F  0.14484153  0.74033846  0.16845644    -0.19400
F1336       F  0.22456739  0.68673526  0.03405936    -0.19400
F1337       F  0.17649199  0.67367172  0.01786159    -0.19700
F1338       F  0.20371076  0.64076508  0.04784482    -0.22400
C1339       C  0.91632659  0.71740493  0.23002186    -0.05300
C1340       C  0.91793321  0.74986555  0.22551469     0.00700
C1341       C  0.90478028  0.76291540  0.19852471    -0.07900
C1342       C  0.89562865  0.74292286  0.17463709    -0.05300
C1343       C  0.89835009  0.71039513  0.17723872     0.00700
C1344       C  0.90679168  0.69724155  0.20604234    -0.07800
C1345       C  0.90620861  0.66230509  0.21119236     0.62600
H1346       H  0.92643150  0.70780188  0.25091174     0.13300
H1347       H  0.88712756  0.75292516  0.15317947     0.13300
C1348       C  0.90253194  0.79772374  0.19272750     0.62800
F1349       F  0.91280226  0.65467658  0.24165682    -0.22400
F1350       F  0.92803285  0.64818717  0.19241908    -0.19700
F1351       F  0.87702759  0.65063330  0.20419898    -0.19400
F1352       F  0.91993767  0.80555285  0.16685107    -0.19400
F1353       F  0.91289873  0.81539632  0.21740916    -0.19700
F1354       F  0.87181653  0.80535585  0.18739005    -0.22400
C1355       C  0.76234650  0.69650637  0.09087185    -0.05300
C1356       C  0.76201316  0.72849122  0.08341452     0.00700
C1357       C  0.78919857  0.74660007  0.08825122    -0.07900
C1358       C  0.81679764  0.73137598  0.09620449    -0.05300
C1359       C  0.81777321  0.69902808  0.10080950     0.00700
C1360       C  0.78998023  0.68143082  0.09977934    -0.07800
C1361       C  0.78989463  0.64691950  0.10736949     0.62600
H1362       H  0.74155020  0.68285391  0.08655195     0.13300
H1363       H  0.83804623  0.74470147  0.09920551     0.13300
C1364       C  0.78915293  0.78188162  0.08460173     0.62800
F1365       F  0.76018850  0.63440264  0.10668535    -0.22400
F1366       F  0.80190044  0.64229532  0.13673167    -0.19700
F1367       F  0.80793239  0.63112556  0.08604985    -0.19400
F1368       F  0.77121137  0.79465417  0.10790947    -0.19400
F1369       F  0.77718734  0.79069283  0.05624281    -0.19700
F1370       F  0.81882099  0.79435323  0.08673905    -0.22400
C1371       C  0.90194356  0.68724780  0.84852077    -0.05300
C1372       C  0.90012138  0.70888570  0.87274677     0.00700
C1373       C  0.90595558  0.74090478  0.86642797    -0.07900
C1374       C  0.91485739  0.74979828  0.83621645    -0.05300
C1375       C  0.91945096  0.72776012  0.81264925     0.00700
C1376       C  0.91124451  0.69616043  0.81850124    -0.07800
C1377       C  0.91410328  0.67076881  0.79432168     0.62600
H1378       H  0.89653074  0.66298108  0.85322737     0.13300
H1379       H  0.92173293  0.77369017  0.83166155     0.13300
C1380       C  0.90539007  0.76528594  0.89197030     0.62800
F1381       F  0.93793977  0.65089252  0.80248129    -0.22400
F1382       F  0.92000371  0.68262624  0.76506528    -0.19700
F1383       F  0.88662890  0.65390212  0.79303474    -0.19400
F1384       F  0.92459415  0.75611938  0.91592997    -0.19400
F1385       F  0.87552765  0.76895467  0.90311288    -0.19700
F1386       F  0.91565897  0.79409728  0.88154356    -0.22400
C1387       C  0.81660325  0.74060148  0.95877985    -0.05300
C1388       C  0.81859649  0.70856364  0.95292552     0.00700
C1389       C  0.79127229  0.69010578  0.95384060    -0.07900
C1390       C  0.76337485  0.70386347  0.96397866    -0.05300
C1391       C  0.76242456  0.73504723  0.97393754     0.00700
C1392       C  0.78893051  0.75432728  0.96903226    -0.07800
C1393       C  0.79007166  0.78903285  0.97577165     0.62600
H1394       H  0.83727635  0.75497504  0.95621018     0.13300
H1395       H  0.74302888  0.68939130  0.96790866     0.13300
C1396       C  0.79183004  0.65591049  0.94512626     0.62800
F1397       F  0.81165769  0.79486136  0.99878655    -0.22400
F1398       F  0.76186000  0.80097016  0.98502953    -0.19700
F1399       F  0.79914199  0.80473126  0.94919304    -0.19400
F1400       F  0.81035552  0.63975920  0.96567539    -0.19400
F1401       F  0.80357853  0.65260132  0.91546052    -0.19700
F1402       F  0.76238780  0.64273229  0.94584437    -0.22400
C1403       C  0.10586439  0.75481782  0.97685371    -0.05300
C1404       C  0.10999875  0.72646528  0.96139691     0.00700
C1405       C  0.14032692  0.71503293  0.95613091    -0.07900
C1406       C  0.16563172  0.73132290  0.96890536    -0.05300
C1407       C  0.16121651  0.75800280  0.98714932     0.00700
C1408       C  0.13112214  0.77093933  0.98982245    -0.07800
C1409       C  0.12433256  0.80048526  0.00776040     0.62600
H1410       H  0.08259376  0.76406973  0.97943378     0.13300
H1411       H  0.18876694  0.72155715  0.96752690     0.13300
C1412       C  0.14565670  0.68503107  0.93829583     0.62800
F1413       F  0.10800642  0.82083899  0.98907033    -0.22400
F1414       F  0.15100837  0.81561325  0.01755249    -0.19700
F1415       F  0.10638267  0.79320838  0.03341444    -0.19400
F1416       F  0.13550111  0.68844707  0.90812119    -0.19400
F1417       F  0.12942724  0.66086798  0.95222978    -0.19700
F1418       F  0.17677413  0.67704369  0.93740362    -0.22400
C1419       C  0.03826470  0.70332507  0.81553969    -0.05300
C1420       C  0.02609657  0.73342923  0.81159371     0.00700
C1421       C  0.02692635  0.75460095  0.83687264    -0.07900
C1422       C  0.03488794  0.74325725  0.86626255    -0.05300
C1423       C  0.04302503  0.71202539  0.87092151     0.00700
C1424       C  0.04720943  0.69234478  0.84498336    -0.07800
C1425       C  0.06089691  0.66004911  0.84845824     0.62600
H1426       H  0.03765339  0.68746881  0.79602147     0.13300
H1427       H  0.03380472  0.75850306  0.88623789     0.13300
C1428       C  0.01738637  0.78852595  0.83342761     0.62800
F1429       F  0.06629944  0.64628571  0.81996188    -0.22400
F1430       F  0.04076794  0.64110880  0.86499111    -0.19700
F1431       F  0.08894591  0.66199157  0.86397321    -0.19400
F1432       F  0.98631910  0.79052481  0.82565115    -0.19400
F1433       F  0.03518433  0.80263514  0.81066047    -0.19700
F1434       F  0.02182688  0.80514710  0.86057423    -0.22400
loop_ 
_geom_bond_atom_site_label_1 
_geom_bond_atom_site_label_2 
_geom_bond_distance 
_geom_bond_site_symmetry_2 
_ccdc_geom_bond_type 
C1            C2   1.389       .  A
C1            C6   1.409       .  A
C1         C1404   1.472       .  S
C2            C3   1.392       .  A
C2            H7   1.085       .  S
C3            C4   1.412       .  A
C3         C1423   1.480       .  S
C4            C5   1.412       .  A
C4            H8   1.083       .  S
C5            C6   1.410       .  A
C5           C75   1.487       .  S
C6            H9   1.084       .  S
C10          C11   1.394       .  A
C10          C15   1.412       .  A
C10        C1388   1.482       .  S
C11          C12   1.394       .  A
C11          H16   1.085       .  S
C12          C13   1.416       .  A
C12        C1372   1.488       .  S
C13          C14   1.416       .  A
C13          H17   1.083       .  S
C14          C15   1.412       .  A
C14          C81   1.495       .  S
C15          H18   1.083       .  S
C19          C20   1.415       .  A
C19          C24   1.390       .  A
C19        C1343   1.481       .  S
C20          C21   1.414       .  A
C20          H25   1.083       .  S
C21          C22   1.412       .  A
C21          C98   1.488       .  S
C22          C23   1.408       .  A
C22          H26   1.083       .  S
C23          C24   1.388       .  A
C23        C1359   1.477       .  S
C24          H27   1.086       .  S
C28          C29   1.388       .  A
C28          C33   1.403       .  A
C28        C1308   1.475       .  S
C29          C30   1.401       .  A
C29          H34   1.075       .  S
C30          C31   1.426       .  A
C30        C1327   1.518       .  S
C31          C32   1.423       .  A
C31          H35   1.080       .  S
C32          C33   1.405       .  A
C32         C104   1.494       .  S
C33          H36   1.084       .  S
C37          C38   1.395       .  A
C37          C42   1.414       .  A
C37        C1276   1.486       .  S
C38          C39   1.394       .  A
C38          H43   1.084       .  S
C39          C40   1.403       .  A
C39        C1295   1.471       .  S
C40          C41   1.404       .  A
C40          H44   1.084       .  S
C41          C42   1.415       .  A
C41         C101   1.481       .  S
C42          H45   1.084       .  S
C46          C47   1.414       .  A
C46          C51   1.397       .  A
C46        C1244   1.490       .  S
C47          C48   1.415       .  A
C47          H52   1.082       .  S
C48          C49   1.411       .  A
C48          C78   1.492       .  S
C49          C50   1.411       .  A
C49          H53   1.084       .  S
C50          C51   1.393       .  A
C50        C1260   1.481       .  S
C51          H54   1.085       .  S
C55          C56   1.411       .  A
C55          C60   1.394       .  A
C55        C1215   1.479       .  S
C56          C57   1.411       .  A
C56          H61   1.084       .  S
C57          C58   1.409       .  A
C57          C84   1.483       .  S
C58          C59   1.409       .  A
C58          H62   1.084       .  S
C59          C60   1.394       .  A
C59        C1231   1.478       .  S
C60          H63   1.085       .  S
C64          C65   1.394       .  A
C64          C69   1.410       .  A
C64        C1180   1.480       .  S
C65          C66   1.394       .  A
C65          H70   1.085       .  S
C66          C67   1.414       .  A
C66        C1196   1.482       .  S
C67          C68   1.413       .  A
C67          H71   1.084       .  S
C68          C69   1.411       .  A
C68          C95   1.489       .  S
C69          H72   1.084       .  S
O73         Zr85   2.454       .  S
O73          C75   1.290       .  A
O74        Zr111   2.461   1_456  S
O74          C75   1.294       .  A
O76         Zr88   2.447       .  S
O76          C78   1.288       .  A
O77        Zr112   2.479   1_556  S
O77          C78   1.297       .  A
O79         Zr88   2.447       .  S
O79          C81   1.289       .  A
O80        Zr111   2.487   1_556  S
O80          C81   1.299       .  A
O82         Zr85   2.435       .  S
O82          C84   1.286       .  A
O83        Zr112   2.474   1_456  S
O83          C84   1.296       .  A
Zr85         O86   2.435       .  S
Zr85         O87   2.435       .  S
Zr85         O91   2.367   1_455  S
Zr85         O92   2.377   1_455  S
Zr85        O115   2.377   1_556  S
Zr85        O117   2.364   1_556  S
O86         H129   0.990       .  S
O87         H128   0.990       .  S
O87         H132   0.990       .  S
Zr88         O89   2.438       .  S
Zr88         O90   2.437       .  S
Zr88         O92   2.374       .  S
Zr88         O91   2.374       .  S
Zr88        O116   2.380   1_556  S
Zr88        O118   2.376   1_556  S
O89         H130   0.990       .  S
O89         H133   0.990       .  S
O90         H123   0.990       .  S
O91        Zr111   2.396   1_556  S
O92        Zr112   2.399   1_556  S
O92         H119   0.967       .  S
O93        Zr105   2.450       .  S
O93          C95   1.288       .  A
O94        Zr112   2.472   1_455  S
O94          C95   1.296       .  A
O96        Zr108   2.448       .  S
O96          C98   1.288       .  A
O97        Zr111   2.471       .  S
O97          C98   1.296       .  A
O99        Zr108   2.440       .  S
O99         C101   1.287       .  A
O100       Zr112   2.467       .  S
O100        C101   1.295       .  A
O102       Zr105   2.432       .  S
O102        C104   1.286       .  A
O103       Zr111   2.489   1_455  S
O103        C104   1.300       .  A
Zr105       O106   2.435       .  S
Zr105       O107   2.434       .  S
Zr105       O113   2.367   1_455  S
Zr105       O114   2.382   1_455  S
Zr105       O117   2.376       .  S
Zr105       O115   2.368       .  S
O106        H126   0.990       .  S
O106        H131   0.990       .  S
O107        H127   0.990       .  S
Zr108       O109   2.434       .  S
Zr108       O110   2.438       .  S
Zr108       O114   2.374       .  S
Zr108       O113   2.374       .  S
Zr108       O118   2.378       .  S
Zr108       O116   2.375       .  S
O109        H125   0.990       .  S
O110        H124   0.990       .  S
O110        H134   0.990       .  S
Zr111       O114   2.396       .  S
Zr111       O116   2.402       .  S
Zr111       O117   2.395   1_655  S
Zr112       O113   2.396       .  S
Zr112       O115   2.393   1_655  S
Zr112       O118   2.400       .  S
O113        H121   0.966       .  S
O116        H120   0.966       .  S
O117        H122   0.965       .  S
C135        C136   1.396       .  A
C135        C140   1.411       .  A
C135       C1151   1.484       .  S
C136        C137   1.397       .  A
C136        H141   1.085       .  S
C137        C138   1.414       .  A
C137       C1164   1.486       .  S
C138        C139   1.414       .  A
C138        H142   1.084       .  S
C139        C140   1.411       .  A
C139        C209   1.491   1_565  S
C140        H143   1.084   1_565  S
C144        C145   1.391       .  A
C144        C149   1.413       .  A
C144       C1132   1.480       .  S
C145        C146   1.392       .  A
C145        H150   1.085       .  S
C146        C147   1.409       .  A
C146       C1116   1.477       .  S
C147        C148   1.412       .  A
C147        H151   1.084       .  S
C148        C149   1.413       .  A
C148        C215   1.488   1_565  S
C149        H152   1.083   1_565  S
C153        C154   1.426       .  A
C153        C158   1.401       .  A
C153       C1084   1.520       .  S
C154        C155   1.423       .  A
C154        H159   1.079       .  S
C155        C156   1.406       .  A
C155        C232   1.494       .  S
C156        C157   1.403       .  A
C156        H160   1.084       .  S
C157        C158   1.387       .  A
C157       C1100   1.475       .  S
C158        H161   1.075       .  S
C162        C163   1.406       .  A
C162        C167   1.392       .  A
C162       C1055   1.471       .  S
C163        C164   1.406       .  A
C163        H168   1.084       .  S
C164        C165   1.411       .  A
C164        C238   1.480       .  S
C165        C166   1.411       .  A
C165        H169   1.084       .  S
C166        C167   1.393       .  A
C166       C1071   1.480       .  S
C167        H170   1.084       .  S
C171        C172   1.387       .  A
C171        C176   1.413       .  A
C171       C1020   1.478       .  S
C172        C173   1.388       .  A
C172        H177   1.086       .  S
C173        C174   1.408       .  A
C173       C1039   1.472       .  S
C174        C175   1.412       .  A
C174        H178   1.084       .  S
C175        C176   1.416       .  A
C175        C235   1.487       .  S
C176        H179   1.083       .  S
C180        C181   1.395       .  A
C180        C185   1.417   1_565  A
C180        C988   1.489       .  S
C181        C182   1.389       .  A
C181        H186   1.085       .  S
C182        C183   1.403       .  A
C182       C1004   1.468       .  S
C183        C184   1.405       .  A
C183        H187   1.084       .  S
C184        C185   1.415   1_565  A
C184        C212   1.484   1_565  S
C185        H188   1.082       .  S
C189        C190   1.410       .  A
C189        C194   1.394       .  A
C189        C956   1.481       .  S
C190        C191   1.410       .  A
C190        H195   1.083   1_565  S
C191        C192   1.420       .  A
C191        C218   1.496   1_565  S
C192        C193   1.419       .  A
C192        H196   1.083       .  S
C193        C194   1.394       .  A
C193        C972   1.494       .  S
C194        H197   1.085       .  S
C198        C199   1.392       .  A
C198        C203   1.411       .  A
C198        C943   1.481       .  S
C199        C200   1.394       .  A
C199        H204   1.085       .  S
C200        C201   1.413       .  A
C200        C924   1.483       .  S
C201        C202   1.413       .  A
C201        H205   1.083       .  S
C202        C203   1.412       .  A
C202        C229   1.489       .  S
C203        H206   1.084       .  S
O207       Zr219   2.448   1_565  S
O207        C209   1.288   1_565  A
O208       Zr245   2.477       .  S
O208        C209   1.297       .  A
O210       Zr222   2.444       .  S
O210        C212   1.288       .  A
O211       Zr246   2.468   1_556  S
O211        C212   1.295       .  A
O213       Zr222   2.443       .  S
O213        C215   1.287       .  A
O214       Zr245   2.474   1_556  S
O214        C215   1.296       .  A
O216       Zr219   2.443   1_565  S
O216        C218   1.287   1_565  A
O217       Zr246   2.492       .  S
O217        C218   1.300       .  A
Zr219       O220   2.434   1_545  S
Zr219       O221   2.437       .  S
Zr219       O225   2.373       .  S
Zr219       O226   2.377       .  S
Zr219       O249   2.378       .  S
Zr219       O251   2.370       .  S
O220        H263   0.990       .  S
O221        H262   0.990       .  S
O221        H266   0.990   1_545  S
Zr222       O223   2.438   1_545  S
Zr222       O224   2.434       .  S
Zr222       O226   2.376   1_556  S
Zr222       O225   2.372   1_556  S
Zr222       O250   2.375       .  S
Zr222       O252   2.372       .  S
O223        H264   0.990       .  S
O223        H267   0.990       .  S
O224        H257   0.990       .  S
O225       Zr245   2.392       .  S
O226       Zr246   2.400       .  S
O226        H253   0.967   1_545  S
O227       Zr239   2.444       .  S
O227        C229   1.287       .  A
O228       Zr246   2.478       .  S
O228        C229   1.297       .  A
O230       Zr242   2.437       .  S
O230        C232   1.286       .  A
O231       Zr245   2.480   1_556  S
O231        C232   1.298       .  A
O233       Zr242   2.437       .  S
O233        C235   1.287       .  A
O234       Zr246   2.479   1_556  S
O234        C235   1.297       .  A
O236       Zr239   2.446       .  S
O236        C238   1.289       .  A
O237       Zr245   2.458       .  S
O237        C238   1.293       .  A
Zr239       O240   2.439       .  S
Zr239       O241   2.433       .  S
Zr239       O247   2.372       .  S
Zr239       O248   2.372       .  S
Zr239       O251   2.375       .  S
Zr239       O249   2.378       .  S
O240        H260   0.990       .  S
O240        H265   0.990       .  S
O241        H261   0.990       .  S
Zr242       O243   2.435       .  S
Zr242       O244   2.435       .  S
Zr242       O248   2.370   1_556  S
Zr242       O247   2.370   1_556  S
Zr242       O252   2.374       .  S
Zr242       O250   2.377       .  S
O243        H259   0.990   1_556  S
O244        H258   0.990       .  S
O244        H268   0.990       .  S
Zr245       O248   2.394       .  S
Zr245       O250   2.397   1_554  S
Zr245       O251   2.399       .  S
Zr246       O247   2.399       .  S
Zr246       O249   2.398       .  S
Zr246       O252   2.398   1_554  S
O247        H255   0.966       .  S
O250        H254   0.968       .  S
O251        H256   0.966       .  S
C269        C270   1.411   1_565  A
C269        C274   1.392       .  A
C269        C892   1.480       .  S
C270        C271   1.411   1_545  A
C270        H275   1.083       .  S
C271        C272   1.413       .  A
C271        C349   1.488   1_565  S
C272        C273   1.413       .  A
C272        H276   1.083       .  S
C273        C274   1.393       .  A
C273        C908   1.484       .  S
C274        H277   1.085       .  S
C278        C279   1.411   1_565  A
C278        C283   1.391       .  A
C278        C876   1.480   1_565  S
C279        C280   1.414   1_545  A
C279        H284   1.084       .  S
C280        C281   1.415       .  A
C280        C343   1.490   1_565  S
C281        C282   1.413       .  A
C281        H285   1.083       .  S
C282        C283   1.393       .  A
C282        C860   1.481       .  S
C283        H286   1.085       .  S
C287        C288   1.392       .  A
C287        C292   1.409       .  A
C287        C831   1.477       .  S
C288        C289   1.391       .  A
C288        H293   1.085       .  S
C289        C290   1.412       .  A
C289        C847   1.478       .  S
C290        C291   1.413       .  A
C290        H294   1.084       .  S
C291        C292   1.410       .  A
C291        C372   1.485       .  S
C292        H295   1.084       .  S
C296        C297   1.391       .  A
C296        C301   1.414       .  A
C296        C799   1.483       .  S
C297        C298   1.391       .  A
C297        H302   1.085       .  S
C298        C299   1.413       .  A
C298        C815   1.481       .  S
C299        C300   1.414       .  A
C299        H303   1.083       .  S
C300        C301   1.415       .  A
C300        C366   1.495       .  S
C301        H304   1.083       .  S
C305        C306   1.412       .  A
C305        C310   1.396       .  A
C305        C767   1.486       .  S
C306        C307   1.411       .  A
C306        H311   1.084       .  S
C307        C308   1.416       .  A
C307        C363   1.495       .  S
C308        C309   1.417       .  A
C308        H312   1.083       .  S
C309        C310   1.396       .  A
C309        C783   1.489       .  S
C310        H313   1.084       .  S
C314        C315   1.413   1_565  A
C314        C319   1.392       .  A
C314        C732   1.481       .  S
C315        C316   1.416   1_545  A
C315        H320   1.083       .  S
C316        C317   1.408       .  A
C316        C352   1.485   1_565  S
C317        C318   1.408       .  A
C317        H321   1.084       .  S
C318        C319   1.392       .  A
C318        C748   1.476       .  S
C319        H322   1.086       .  S
C323        C324   1.406   1_565  A
C323        C328   1.388       .  A
C323        C703   1.469   1_565  S
C324        C325   1.410       .  A
C324        H329   1.084       .  S
C325        C326   1.409   1_545  A
C325        C346   1.479       .  S
C326        C327   1.408       .  A
C326        H330   1.084       .  S
C327        C328   1.388       .  A
C327        C716   1.469       .  S
C328        H331   1.086       .  S
C332        C333   1.411       .  A
C332        C337   1.394       .  A
C332        C671   1.480       .  S
C333        C334   1.411       .  A
C333        H338   1.084       .  S
C334        C335   1.419       .  A
C334        C369   1.498       .  S
C335        C336   1.419       .  A
C335        H339   1.083       .  S
C336        C337   1.396       .  A
C336        C684   1.494       .  S
C337        H340   1.083       .  S
O341       Zr353   2.441       .  S
O341        C343   1.287       .  A
O342       Zr379   2.482       .  S
O342        C343   1.298       .  A
O344       Zr356   2.431       .  S
O344        C346   1.286       .  A
O345       Zr380   2.468   1_455  S
O345        C346   1.295       .  A
O347       Zr356   2.439       .  S
O347        C349   1.287       .  A
O348       Zr379   2.479   1_455  S
O348        C349   1.297       .  A
O350       Zr353   2.425       .  S
O350        C352   1.284       .  A
O351       Zr380   2.486       .  S
O351        C352   1.299       .  A
Zr353       O354   2.435   1_545  S
Zr353       O355   2.436       .  S
Zr353       O359   2.371       .  S
Zr353       O360   2.377       .  S
Zr353       O383   2.373       .  S
Zr353       O385   2.369       .  S
O354        H397   0.990       .  S
O355        H396   0.990       .  S
O355        H400   0.990       .  S
Zr356       O357   2.435   1_545  S
Zr356       O358   2.435       .  S
Zr356       O360   2.375   1_455  S
Zr356       O359   2.371   1_455  S
Zr356       O384   2.373       .  S
Zr356       O386   2.371       .  S
O357        H398   0.990       .  S
O357        H401   0.990       .  S
O358        H391   0.990       .  S
O359       Zr379   2.392       .  S
O360       Zr380   2.402       .  S
O360        H387   0.966       .  S
O361       Zr373   2.450       .  S
O361        C363   1.289       .  A
O362       Zr380   2.482       .  S
O362        C363   1.298       .  A
O364       Zr376   2.455       .  S
O364        C366   1.290       .  A
O365       Zr379   2.478   1_455  S
O365        C366   1.297       .  A
O367       Zr376   2.457       .  S
O367        C369   1.290       .  A
O368       Zr380   2.484   1_455  S
O368        C369   1.298       .  A
O370       Zr373   2.445       .  S
O370        C372   1.288       .  A
O371       Zr379   2.469       .  S
O371        C372   1.295       .  A
Zr373       O374   2.434       .  S
Zr373       O375   2.434       .  S
Zr373       O381   2.376       .  S
Zr373       O382   2.376       .  S
Zr373       O385   2.375       .  S
Zr373       O383   2.369       .  S
O374        H394   0.990       .  S
O374        H399   0.990       .  S
O375        H395   0.990       .  S
Zr376       O377   2.436       .  S
Zr376       O378   2.437       .  S
Zr376       O382   2.377   1_455  S
Zr376       O381   2.382   1_455  S
Zr376       O386   2.370       .  S
Zr376       O384   2.377       .  S
O377        H393   0.990       .  S
O378        H392   0.990       .  S
O378        H402   0.990       .  S
Zr379       O382   2.401       .  S
Zr379       O384   2.401   1_655  S
Zr379       O385   2.399       .  S
Zr380       O381   2.401       .  S
Zr380       O383   2.392       .  S
Zr380       O386   2.397   1_655  S
O381        H389   0.966       .  S
O384        H388   0.966       .  S
O385        H390   0.966       .  S
C403        C404   1.391   1_455  A
C403        C408   1.413       .  A
C403       C1183   1.481       .  S
C404        C405   1.393       .  A
C404        H423   1.088       .  S
C405        C406   1.416       .  A
C405       C1279   1.483       .  S
C406        C407   1.422       .  A
C406        C413   1.405       .  A
C407        C408   1.422   1_655  A
C407        C412   1.419       .  A
C408        C409   1.404       .  A
C409        C410   1.398       .  A
C409        H419   1.083       .  S
C410        C411   1.405       .  A
C410        H420   1.083       .  S
C411        C412   1.423   1_455  A
C411        C418   1.413       .  A
C412        C415   1.424       .  A
C413        C414   1.401       .  A
C413        H421   1.083       .  S
C414        C415   1.406       .  A
C414        H422   1.083       .  S
C415        C416   1.417       .  A
C416        C417   1.391       .  A
C416        C764   1.486       .  S
C417        C418   1.391   1_655  A
C417        H424   1.088       .  S
C418        C668   1.480       .  S
C425        C426   1.388       .  A
C425        C430   1.414       .  A
C425        C959   1.483       .  S
C426        C427   1.390       .  A
C426        H445   1.088       .  S
C427        C428   1.413       .  A
C427        C927   1.479       .  S
C428        C429   1.424       .  A
C428        C435   1.405       .  A
C429        C430   1.427       .  A
C429        C434   1.419       .  A
C430        C431   1.404       .  A
C431        C432   1.397       .  A
C431        H441   1.083   1_545  S
C432        C433   1.405       .  A
C432        H442   1.083   1_545  S
C433        C434   1.417       .  A
C433        C440   1.409       .  A
C434        C437   1.423       .  A
C435        C436   1.399       .  A
C435        H443   1.083       .  S
C436        C437   1.404       .  A
C436        H444   1.083       .  S
C437        C438   1.421       .  A
C438        C439   1.394       .  A
C438        C687   1.495       .  S
C439        C440   1.393       .  A
C439        H446   1.086       .  S
C440        C700   1.476       .  S
C447        C448   1.392       .  A
C447        C452   1.415       .  A
C447       C1199   1.482       .  S
C448        C449   1.392   1_554  A
C448        H467   1.088       .  S
C449        C450   1.418       .  A
C449       C1212   1.484       .  S
C450        C451   1.423   1_556  A
C450        C457   1.405       .  A
C451        C452   1.420       .  A
C451        C456   1.419       .  A
C452        C453   1.405       .  A
C453        C454   1.401       .  A
C453        H463   1.083       .  S
C454        C455   1.406       .  A
C454        H464   1.083       .  S
C455        C456   1.426       .  A
C455        C462   1.418       .  A
C456        C459   1.422   1_554  A
C457        C458   1.401       .  A
C457        H465   1.083       .  S
C458        C459   1.406       .  A
C458        H466   1.083       .  S
C459        C460   1.414       .  A
C460        C461   1.391   1_556  A
C460       C1023   1.479       .  S
C461        C462   1.388       .  A
C461        H468   1.088       .  S
C462        C940   1.486       .  S
C469        C470   1.394       .  A
C469        C474   1.418       .  A
C469       C1068   1.482       .  S
C470        C471   1.391       .  A
C470        H489   1.088       .  S
C471        C472   1.414       .  A
C471       C1148   1.484       .  S
C472        C473   1.422       .  A
C472        C479   1.404       .  A
C473        C474   1.421       .  A
C473        C478   1.419       .  A
C474        C475   1.406       .  A
C475        C476   1.401       .  A
C475        H485   1.083       .  S
C476        C477   1.405       .  A
C476        H486   1.083       .  S
C477        C478   1.425       .  A
C477        C484   1.417       .  A
C478        C481   1.423       .  A
C479        C480   1.399       .  A
C479        H487   1.083   1_545  S
C480        C481   1.406       .  A
C480        H488   1.083   1_545  S
C481        C482   1.415       .  A
C482        C483   1.391       .  A
C482        C735   1.480       .  S
C483        C484   1.388       .  A
C483        H490   1.088       .  S
C484        C780   1.486       .  S
C491        C492   1.385       .  A
C491        C496   1.408       .  A
C491       C1340   1.470       .  S
C492        C493   1.385   1_655  A
C492        H511   1.088       .  S
C493        C494   1.411       .  A
C493       C1311   1.476       .  S
C494        C495   1.425   1_455  A
C494        C501   1.403       .  A
C495        C496   1.422       .  A
C495        C500   1.413       .  A
C496        C497   1.404       .  A
C497        C498   1.395       .  A
C497        H507   1.083       .  S
C498        C499   1.403       .  A
C498        H508   1.083       .  S
C499        C500   1.424       .  A
C499        C506   1.410       .  A
C500        C503   1.421   1_655  A
C501        C502   1.396       .  A
C501        H509   1.083       .  S
C502        C503   1.405       .  A
C502        H510   1.083       .  S
C503        C504   1.409       .  A
C504        C505   1.391   1_455  A
C504        C719   1.475       .  S
C505        C506   1.388       .  A
C505        H512   1.088       .  S
C506        C751   1.481       .  S
C513        C514   1.386       .  A
C513        C518   1.409       .  A
C513       C1036   1.476       .  S
C514        C515   1.389       .  A
C514        H533   1.088       .  S
C515        C516   1.418       .  A
C515        C991   1.487       .  S
C516        C517   1.427       .  A
C516        C523   1.403       .  A
C517        C518   1.422       .  A
C517        C522   1.418       .  A
C518        C519   1.405       .  A
C519        C520   1.396       .  A
C519        H529   1.083       .  S
C520        C521   1.403       .  A
C520        H530   1.083       .  S
C521        C522   1.427       .  A
C521        C528   1.413       .  A
C522        C525   1.423       .  A
C523        C524   1.399       .  A
C523        H531   1.083   1_545  S
C524        C525   1.406       .  A
C524        H532   1.083   1_545  S
C525        C526   1.414       .  A
C526        C527   1.388       .  A
C526        C895   1.479       .  S
C527        C528   1.387       .  A
C527        H534   1.088       .  S
C528        C812   1.481       .  S
C535        C536   1.392   1_455  A
C535        C540   1.414       .  A
C535       C1228   1.480       .  S
C536        C537   1.390       .  A
C536        H555   1.087       .  S
C537        C538   1.414       .  A
C537       C1263   1.481       .  S
C538        C539   1.423       .  A
C538        C545   1.405       .  A
C539        C540   1.422   1_655  A
C539        C544   1.418       .  A
C540        C541   1.406       .  A
C541        C542   1.398       .  A
C541        H551   1.083       .  S
C542        C543   1.404       .  A
C542        H552   1.083       .  S
C543        C544   1.424   1_455  A
C543        C550   1.415       .  A
C544        C547   1.422       .  A
C545        C546   1.398       .  A
C545        H553   1.083       .  S
C546        C547   1.404       .  A
C546        H554   1.083       .  S
C547        C548   1.412       .  A
C548        C549   1.391       .  A
C548        C828   1.481       .  S
C549        C550   1.391   1_655  A
C549        H556   1.088       .  S
C550        C796   1.482       .  S
C557        C558   1.382       .  A
C557        C562   1.405       .  A
C557       C1407   1.475   1_554  S
C558        C559   1.394       .  A
C558        H577   1.087       .  S
C559        C560   1.422       .  A
C559       C1324   1.491       .  S
C560        C561   1.426       .  A
C560        C567   1.408       .  A
C561        C562   1.423       .  A
C561        C566   1.416       .  A
C562        C563   1.402   1_554  A
C563        C564   1.391       .  A
C563        H573   1.083       .  S
C564        C565   1.403   1_556  A
C564        H574   1.083       .  S
C565        C566   1.421       .  A
C565        C572   1.406       .  A
C566        C569   1.423       .  A
C567        C568   1.405       .  A
C567        H575   1.081       .  S
C568        C569   1.405       .  A
C568        H576   1.083       .  S
C569        C570   1.419       .  A
C570        C571   1.392       .  A
C570        C975   1.485       .  S
C571        C572   1.387       .  A
C571        H578   1.088       .  S
C572       C1007   1.473   1_554  S
C579        C580   1.391   1_556  A
C579        C584   1.417       .  A
C579       C1247   1.486       .  S
C580        C581   1.387       .  A
C580        H599   1.088       .  S
C581        C582   1.409       .  A
C581       C1292   1.474       .  S
C582        C583   1.422       .  A
C582        C589   1.403       .  A
C583        C584   1.421   1_554  A
C583        C588   1.417       .  A
C584        C585   1.404       .  A
C585        C586   1.404       .  A
C585        H595   1.083       .  S
C586        C587   1.408       .  A
C586        H596   1.081       .  S
C587        C588   1.429   1_556  A
C587        C594   1.425       .  A
C588        C591   1.422       .  A
C589        C590   1.392       .  A
C589        H597   1.083       .  S
C590        C591   1.404       .  A
C590        H598   1.083       .  S
C591        C592   1.403       .  A
C592        C593   1.383       .  A
C592       C1052   1.473       .  S
C593        C594   1.394   1_554  A
C593        H600   1.086       .  S
C594       C1087   1.496       .  S
C601        C602   1.392       .  A
C601        C606   1.422       .  A
C601       C1375   1.491       .  S
C602        C603   1.392   1_655  A
C602        H621   1.087       .  S
C603        C604   1.410       .  A
C603       C1420   1.482       .  S
C604        C605   1.420   1_455  A
C604        C611   1.404       .  A
C605        C606   1.426       .  A
C605        C610   1.420       .  A
C606        C607   1.405       .  A
C607        C608   1.400       .  A
C607        H617   1.083       .  S
C608        C609   1.406       .  A
C608        H618   1.083       .  S
C609        C610   1.424       .  A
C609        C616   1.415       .  A
C610        C613   1.428       .  A
C611        C612   1.397       .  A
C611        H619   1.083       .  S
C612        C613   1.404   1_455  A
C612        H620   1.083       .  S
C613        C614   1.416       .  A
C614        C615   1.387       .  A
C614        C911   1.484   1_655  S
C615        C616   1.388       .  A
C615        H622   1.088       .  S
C616        C863   1.481       .  S
C623        C624   1.387       .  A
C623        C628   1.411       .  A
C623       C1135   1.477       .  S
C624        C625   1.387       .  A
C624        H643   1.088       .  S
C625        C626   1.413       .  A
C625       C1103   1.477       .  S
C626        C627   1.425       .  A
C626        C633   1.405       .  A
C627        C628   1.425       .  A
C627        C632   1.416       .  A
C628        C629   1.405       .  A
C629        C630   1.398       .  A
C629        H639   1.083   1_545  S
C630        C631   1.404       .  A
C630        H640   1.083   1_545  S
C631        C632   1.420       .  A
C631        C638   1.411       .  A
C632        C635   1.421       .  A
C633        C634   1.399       .  A
C633        H641   1.083       .  S
C634        C635   1.405       .  A
C634        H642   1.083       .  S
C635        C636   1.413       .  A
C636        C637   1.393       .  A
C636        C844   1.478       .  S
C637        C638   1.391       .  A
C637        H644   1.088       .  S
C638        C879   1.481       .  S
C645        C646   1.386       .  A
C645        C650   1.411       .  A
C645       C1391   1.482   1_554  S
C646        C647   1.390       .  A
C646        H665   1.088       .  S
C647        C648   1.416       .  A
C647       C1356   1.478       .  S
C648        C649   1.424       .  A
C648        C655   1.406       .  A
C649        C650   1.426       .  A
C649        C654   1.418       .  A
C650        C651   1.403   1_554  A
C651        C652   1.394       .  A
C651        H661   1.083       .  S
C652        C653   1.403   1_556  A
C652        H662   1.083       .  S
C653        C654   1.421       .  A
C653        C660   1.408       .  A
C654        C657   1.425       .  A
C655        C656   1.401       .  A
C655        H663   1.083       .  S
C656        C657   1.405       .  A
C656        H664   1.083       .  S
C657        C658   1.419       .  A
C658        C659   1.392       .  A
C658       C1167   1.486       .  S
C659        C660   1.389       .  A
C659        H666   1.088       .  S
C660       C1119   1.479   1_554  S
C667        C668   1.403       .  A
C667        C672   1.405       .  A
C667        H674   1.083       .  S
C668        C669   1.413       .  A
C669        C670   1.409       .  A
C669        C676   1.515       .  S
C670        C671   1.404       .  A
C670        H675   1.083       .  S
C671        C672   1.415       .  A
C672        C673   1.517       .  S
C673        F677   1.385       .  S
C673        F678   1.382       .  S
C673        F679   1.379       .  S
C676        F680   1.383       .  S
C676        F681   1.383       .  S
C676        F682   1.384       .  S
C683        C684   1.403       .  A
C683        C688   1.410       .  A
C683        H690   1.084       .  S
C684        C685   1.423       .  A
C685        C686   1.406       .  A
C685        C692   1.519       .  S
C686        C687   1.403       .  A
C686        H691   1.083       .  S
C687        C688   1.422       .  A
C688        C689   1.515       .  S
C689        F693   1.383       .  S
C689        F694   1.383       .  S
C689        F695   1.383       .  S
C692        F696   1.380       .  S
C692        F697   1.383       .  S
C692        F698   1.385       .  S
C699        C700   1.406       .  A
C699        C704   1.400       .  A
C699        H706   1.084       .  S
C700        C701   1.412       .  A
C701        C702   1.407   1_545  A
C701        C708   1.514   1_545  S
C702        C703   1.404   1_565  A
C702        H707   1.083       .  S
C703        C704   1.412       .  A
C704        C705   1.521       .  S
C705        F709   1.384       .  S
C705        F710   1.383       .  S
C705        F711   1.382       .  S
C708        F712   1.383   1_565  S
C708        F713   1.383       .  S
C708        F714   1.384       .  S
C715        C716   1.400       .  A
C715        C720   1.403       .  A
C715        H722   1.083       .  S
C716        C717   1.412       .  A
C717        C718   1.404       .  A
C717        C724   1.517       .  S
C718        C719   1.405       .  A
C718        H723   1.084       .  S
C719        C720   1.417       .  A
C720        C721   1.520       .  S
C721        F725   1.385       .  S
C721        F726   1.380       .  S
C721        F727   1.382       .  S
C724        F728   1.383       .  S
C724        F729   1.383       .  S
C724        F730   1.384       .  S
C731        C732   1.402       .  A
C731        C736   1.402   1_565  A
C731        H738   1.084       .  S
C732        C733   1.414       .  A
C733        C734   1.411       .  A
C733        C740   1.515       .  S
C734        C735   1.408   1_565  A
C734        H739   1.083   1_565  S
C735        C736   1.418       .  A
C736        C737   1.521       .  S
C737        F741   1.383       .  S
C737        F742   1.381   1_545  S
C737        F743   1.385       .  S
C740        F744   1.382   1_565  S
C740        F745   1.383       .  S
C740        F746   1.385       .  S
C747        C748   1.401       .  A
C747        C752   1.402       .  A
C747        H754   1.084       .  S
C748        C749   1.412       .  A
C749        C750   1.408       .  A
C749        C756   1.517       .  S
C750        C751   1.408       .  A
C750        H755   1.083       .  S
C751        C752   1.418       .  A
C752        C753   1.521       .  S
C753        F757   1.384       .  S
C753        F758   1.381       .  S
C753        F759   1.380       .  S
C756        F760   1.383       .  S
C756        F761   1.382       .  S
C756        F762   1.384       .  S
C763        C764   1.408       .  A
C763        C768   1.412       .  A
C763        H770   1.083       .  S
C764        C765   1.419       .  A
C765        C766   1.405       .  A
C765        C772   1.521       .  S
C766        C767   1.402       .  A
C766        H771   1.083       .  S
C767        C768   1.415       .  A
C768        C769   1.518       .  S
C769        F773   1.385       .  S
C769        F774   1.382       .  S
C769        F775   1.383       .  S
C772        F776   1.382       .  S
C772        F777   1.381       .  S
C772        F778   1.384       .  S
C779        C780   1.403       .  A
C779        C784   1.410       .  A
C779        H786   1.083       .  S
C780        C781   1.418       .  A
C781        C782   1.408       .  A
C781        C788   1.515       .  S
C782        C783   1.403       .  A
C782        H787   1.084       .  S
C783        C784   1.421       .  A
C784        C785   1.520       .  S
C785        F789   1.385       .  S
C785        F790   1.383       .  S
C785        F791   1.381       .  S
C788        F792   1.383       .  S
C788        F793   1.384       .  S
C788        F794   1.383       .  S
C795        C796   1.401       .  A
C795        C800   1.404       .  A
C795        H802   1.082       .  S
C796        C797   1.414       .  A
C797        C798   1.411       .  A
C797        C804   1.515       .  S
C798        C799   1.405       .  A
C798        H803   1.083       .  S
C799        C800   1.419       .  A
C800        C801   1.522       .  S
C801        F805   1.385       .  S
C801        F806   1.381       .  S
C801        F807   1.383       .  S
C804        F808   1.383       .  S
C804        F809   1.382       .  S
C804        F810   1.384       .  S
C811        C812   1.405       .  A
C811        C816   1.408       .  A
C811        H818   1.083       .  S
C812        C813   1.417       .  A
C813        C814   1.407       .  A
C813        C820   1.520       .  S
C814        C815   1.404       .  A
C814        H819   1.083       .  S
C815        C816   1.414       .  A
C816        C817   1.516       .  S
C817        F821   1.384       .  S
C817        F822   1.383       .  S
C817        F823   1.382       .  S
C820        F824   1.382       .  S
C820        F825   1.382       .  S
C820        F826   1.384       .  S
C827        C828   1.407       .  A
C827        C832   1.408       .  A
C827        H834   1.083       .  S
C828        C829   1.421       .  A
C829        C830   1.403       .  A
C829        C836   1.522       .  S
C830        C831   1.400       .  A
C830        H835   1.083       .  S
C831        C832   1.413       .  A
C832        C833   1.517       .  S
C833        F837   1.384       .  S
C833        F838   1.383       .  S
C833        F839   1.382       .  S
C836        F840   1.381       .  S
C836        F841   1.380       .  S
C836        F842   1.385       .  S
C843        C844   1.404       .  A
C843        C848   1.403       .  A
C843        H850   1.084       .  S
C844        C845   1.413       .  A
C845        C846   1.409       .  A
C845        C852   1.516       .  S
C846        C847   1.405       .  A
C846        H851   1.083       .  S
C847        C848   1.414       .  A
C848        C849   1.517       .  S
C849        F853   1.385       .  S
C849        F854   1.382       .  S
C849        F855   1.382       .  S
C852        F856   1.383       .  S
C852        F857   1.383       .  S
C852        F858   1.384       .  S
C859        C860   1.400       .  A
C859        C864   1.401       .  A
C859        H866   1.085       .  S
C860        C861   1.414       .  A
C861        C862   1.411       .  A
C861        C868   1.515       .  S
C862        C863   1.408       .  A
C862        H867   1.083       .  S
C863        C864   1.419       .  A
C864        C865   1.515       .  S
C865        F869   1.382       .  S
C865        F870   1.380       .  S
C865        F871   1.384       .  S
C868        F872   1.383       .  S
C868        F873   1.382       .  S
C868        F874   1.385       .  S
C875        C876   1.405   1_565  A
C875        C880   1.411   1_565  A
C875        H882   1.083       .  S
C876        C877   1.416       .  A
C877        C878   1.404       .  A
C877        C884   1.520       .  S
C878        C879   1.404       .  A
C878        H883   1.084       .  S
C879        C880   1.413       .  A
C880        C881   1.515       .  S
C881        F885   1.384   1_545  S
C881        F886   1.383       .  S
C881        F887   1.383   1_545  S
C884        F888   1.382       .  S
C884        F889   1.381   1_545  S
C884        F890   1.385       .  S
C891        C892   1.401       .  A
C891        C896   1.400   1_565  A
C891        H898   1.085       .  S
C892        C893   1.413       .  A
C893        C894   1.410   1_565  A
C893        C900   1.517       .  S
C894        C895   1.409       .  A
C894        H899   1.083       .  S
C895        C896   1.420       .  A
C896        C897   1.519       .  S
C897        F901   1.383       .  S
C897        F902   1.378       .  S
C897        F903   1.383   1_545  S
C900        F904   1.381   1_565  S
C900        F905   1.383       .  S
C900        F906   1.384       .  S
C907        C908   1.404       .  A
C907        C912   1.405       .  A
C907        H914   1.083       .  S
C908        C909   1.414       .  A
C909        C910   1.412       .  A
C909        C916   1.518       .  S
C910        C911   1.410       .  A
C910        H915   1.083       .  S
C911        C912   1.417       .  A
C912        C913   1.521       .  S
C913        F917   1.384       .  S
C913        F918   1.381       .  S
C913        F919   1.382       .  S
C916        F920   1.384       .  S
C916        F921   1.382       .  S
C916        F922   1.384       .  S
C923        C924   1.404       .  A
C923        C928   1.404       .  A
C923        H930   1.083       .  S
C924        C925   1.415       .  A
C925        C926   1.409       .  A
C925        C932   1.515       .  S
C926        C927   1.406       .  A
C926        H931   1.083       .  S
C927        C928   1.414       .  A
C928        C929   1.517       .  S
C929        F933   1.385       .  S
C929        F934   1.382       .  S
C929        F935   1.379       .  S
C932        F936   1.383       .  S
C932        F937   1.381       .  S
C932        F938   1.385       .  S
C939        C940   1.410       .  A
C939        C944   1.412       .  A
C939        H946   1.083       .  S
C940        C941   1.420       .  A
C941        C942   1.405       .  A
C941        C948   1.520       .  S
C942        C943   1.400       .  A
C942        H947   1.083       .  S
C943        C944   1.413       .  A
C944        C945   1.518       .  S
C945        F949   1.383       .  S
C945        F950   1.383       .  S
C945        F951   1.384       .  S
C948        F952   1.382       .  S
C948        F953   1.381       .  S
C948        F954   1.384       .  S
C955        C956   1.402       .  A
C955        C960   1.404   1_565  A
C955        H962   1.082       .  S
C956        C957   1.413       .  A
C957        C958   1.409   1_565  A
C957        C964   1.517       .  S
C958        C959   1.408       .  A
C958        H963   1.083       .  S
C959        C960   1.416       .  A
C960        C961   1.519       .  S
C961        F965   1.385       .  S
C961        F966   1.379       .  S
C961        F967   1.381   1_545  S
C964        F968   1.382   1_565  S
C964        F969   1.383       .  S
C964        F970   1.384       .  S
C971        C972   1.406       .  A
C971        C976   1.415       .  A
C971        H978   1.083       .  S
C972        C973   1.423       .  A
C973        C974   1.407       .  A
C973        C980   1.522       .  S
C974        C975   1.402       .  A
C974        H979   1.083       .  S
C975        C976   1.416       .  A
C976        C977   1.515       .  S
C977        F981   1.384       .  S
C977        F982   1.383       .  S
C977        F983   1.383       .  S
C980        F984   1.384       .  S
C980        F985   1.379       .  S
C980        F986   1.384       .  S
C987        C988   1.406       .  A
C987        C992   1.405   1_565  A
C987        H994   1.083       .  S
C988        C989   1.416       .  A
C989        C990   1.413   1_565  A
C989        C996   1.518       .  S
C990        C991   1.411       .  A
C990        H995   1.083       .  S
C991        C992   1.417       .  A
C992        C993   1.521       .  S
C993        F997   1.384   1_545  S
C993        F998   1.382   1_545  S
C993        F999   1.381       .  S
C996       F1000   1.383       .  S
C996       F1001   1.381   1_565  S
C996       F1002   1.384       .  S
C1003      C1004   1.399       .  A
C1003      C1008   1.403       .  A
C1003      H1010   1.083       .  S
C1004      C1005   1.412       .  A
C1005      C1006   1.402       .  A
C1005      C1012   1.516       .  S
C1006      C1007   1.402       .  A
C1006      H1011   1.084       .  S
C1007      C1008   1.419       .  A
C1008      C1009   1.521   1_556  S
C1009      F1013   1.381   1_554  S
C1009      F1014   1.385       .  S
C1009      F1015   1.382       .  S
C1012      F1016   1.383       .  S
C1012      F1017   1.382       .  S
C1012      F1018   1.385       .  S
C1019      C1020   1.402       .  A
C1019      C1024   1.405       .  A
C1019      H1026   1.084       .  S
C1020      C1021   1.418       .  A
C1021      C1022   1.407       .  A
C1021      C1028   1.520       .  S
C1022      C1023   1.404       .  A
C1022      H1027   1.083       .  S
C1023      C1024   1.414       .  A
C1024      C1025   1.512       .  S
C1025      F1029   1.383       .  S
C1025      F1030   1.383       .  S
C1025      F1031   1.384       .  S
C1028      F1032   1.383       .  S
C1028      F1033   1.382       .  S
C1028      F1034   1.384       .  S
C1035      C1036   1.406       .  A
C1035      C1040   1.408       .  A
C1035      H1042   1.083       .  S
C1036      C1037   1.420       .  A
C1037      C1038   1.398       .  A
C1037      C1044   1.518       .  S
C1038      C1039   1.398       .  A
C1038      H1043   1.085       .  S
C1039      C1040   1.413       .  A
C1040      C1041   1.515       .  S
C1041      F1045   1.385       .  S
C1041      F1046   1.383       .  S
C1041      F1047   1.383       .  S
C1044      F1048   1.383       .  S
C1044      F1049   1.378       .  S
C1044      F1050   1.384       .  S
C1051      C1052   1.404       .  A
C1051      C1056   1.404       .  A
C1051      H1058   1.084       .  S
C1052      C1053   1.413       .  A
C1053      C1054   1.403       .  A
C1053      C1060   1.518       .  S
C1054      C1055   1.402       .  A
C1054      H1059   1.083       .  S
C1055      C1056   1.413       .  A
C1056      C1057   1.518       .  S
C1057      F1061   1.385       .  S
C1057      F1062   1.382       .  S
C1057      F1063   1.382       .  S
C1060      F1064   1.382       .  S
C1060      F1065   1.382       .  S
C1060      F1066   1.384       .  S
C1067      C1068   1.402       .  A
C1067      C1072   1.402       .  A
C1067      H1074   1.084       .  S
C1068      C1069   1.418       .  A
C1069      C1070   1.409       .  A
C1069      C1076   1.517       .  S
C1070      C1071   1.403       .  A
C1070      H1075   1.083       .  S
C1071      C1072   1.419       .  A
C1072      C1073   1.521       .  S
C1073      F1077   1.385       .  S
C1073      F1078   1.381       .  S
C1073      F1079   1.383       .  S
C1076      F1080   1.383       .  S
C1076      F1081   1.382       .  S
C1076      F1082   1.385       .  S
C1083      C1084   1.406       .  A
C1083      C1088   1.407       .  A
C1083      H1090   1.080       .  S
C1084      C1085   1.430       .  A
C1085      C1086   1.406       .  A
C1085      C1092   1.516       .  S
C1086      C1087   1.399       .  A
C1086      H1091   1.083       .  S
C1087      C1088   1.424       .  A
C1088      C1089   1.511   1_556  S
C1089      F1093   1.383   1_554  S
C1089      F1094   1.384       .  S
C1089      F1095   1.383       .  S
C1092      F1096   1.384       .  S
C1092      F1097   1.384       .  S
C1092      F1098   1.384       .  S
C1099      C1100   1.403       .  A
C1099      C1104   1.403       .  A
C1099      H1106   1.084       .  S
C1100      C1101   1.410       .  A
C1101      C1102   1.409       .  A
C1101      C1108   1.515       .  S
C1102      C1103   1.409       .  A
C1102      H1107   1.083       .  S
C1103      C1104   1.413       .  A
C1104      C1105   1.518       .  S
C1105      F1109   1.384       .  S
C1105      F1110   1.382       .  S
C1105      F1111   1.382       .  S
C1108      F1112   1.383       .  S
C1108      F1113   1.383       .  S
C1108      F1114   1.384       .  S
C1115      C1116   1.401       .  A
C1115      C1120   1.402       .  A
C1115      H1122   1.082       .  S
C1116      C1117   1.412       .  A
C1117      C1118   1.408       .  A
C1117      C1124   1.514       .  S
C1118      C1119   1.405       .  A
C1118      H1123   1.083       .  S
C1119      C1120   1.420       .  A
C1120      C1121   1.523       .  S
C1121      F1125   1.385       .  S
C1121      F1126   1.381       .  S
C1121      F1127   1.380   1_556  S
C1124      F1128   1.383       .  S
C1124      F1129   1.382       .  S
C1124      F1130   1.385       .  S
C1131      C1132   1.403       .  A
C1131      C1136   1.410   1_565  A
C1131      H1138   1.083       .  S
C1132      C1133   1.419       .  A
C1133      C1134   1.404   1_565  A
C1133      C1140   1.521       .  S
C1134      C1135   1.401       .  A
C1134      H1139   1.084       .  S
C1135      C1136   1.415       .  A
C1136      C1137   1.517       .  S
C1137      F1141   1.384   1_545  S
C1137      F1142   1.383   1_545  S
C1137      F1143   1.383       .  S
C1140      F1144   1.380       .  S
C1140      F1145   1.384   1_565  S
C1140      F1146   1.384       .  S
C1147      C1148   1.406       .  A
C1147      C1152   1.406       .  A
C1147      H1154   1.084       .  S
C1148      C1149   1.413   1_545  A
C1149      C1150   1.411       .  A
C1149      C1156   1.515       .  S
C1150      C1151   1.406       .  A
C1150      H1155   1.083       .  S
C1151      C1152   1.414   1_565  A
C1152      C1153   1.518       .  S
C1153      F1157   1.384       .  S
C1153      F1158   1.382       .  S
C1153      F1159   1.379   1_545  S
C1156      F1160   1.383   1_565  S
C1156      F1161   1.383       .  S
C1156      F1162   1.384       .  S
C1163      C1164   1.404       .  A
C1163      C1168   1.412       .  A
C1163      H1170   1.083       .  S
C1164      C1165   1.417       .  A
C1165      C1166   1.405       .  A
C1165      C1172   1.517       .  S
C1166      C1167   1.403       .  A
C1166      H1171   1.082       .  S
C1167      C1168   1.419       .  A
C1168      C1169   1.518       .  S
C1169      F1173   1.385       .  S
C1169      F1174   1.383       .  S
C1169      F1175   1.382       .  S
C1172      F1176   1.379       .  S
C1172      F1177   1.384       .  S
C1172      F1178   1.385       .  S
C1179      C1180   1.406       .  A
C1179      C1184   1.410       .  A
C1179      H1186   1.083       .  S
C1180      C1181   1.413       .  A
C1181      C1182   1.404       .  A
C1181      C1188   1.518       .  S
C1182      C1183   1.405       .  A
C1182      H1187   1.084   1_455  S
C1183      C1184   1.412       .  A
C1184      C1185   1.515       .  S
C1185      F1189   1.384       .  S
C1185      F1190   1.383       .  S
C1185      F1191   1.383       .  S
C1188      F1192   1.380       .  S
C1188      F1193   1.382   1_455  S
C1188      F1194   1.384   1_455  S
C1195      C1196   1.404       .  A
C1195      C1200   1.410       .  A
C1195      H1202   1.083       .  S
C1196      C1197   1.416       .  A
C1197      C1198   1.405       .  A
C1197      C1204   1.517       .  S
C1198      C1199   1.404       .  A
C1198      H1203   1.084       .  S
C1199      C1200   1.415       .  A
C1200      C1201   1.515       .  S
C1201      F1205   1.385       .  S
C1201      F1206   1.382       .  S
C1201      F1207   1.383       .  S
C1204      F1208   1.383       .  S
C1204      F1209   1.380       .  S
C1204      F1210   1.385       .  S
C1211      C1212   1.405       .  A
C1211      C1216   1.406       .  A
C1211      H1218   1.084       .  S
C1212      C1213   1.417       .  A
C1213      C1214   1.410       .  A
C1213      C1220   1.516       .  S
C1214      C1215   1.403       .  A
C1214      H1219   1.083       .  S
C1215      C1216   1.414       .  A
C1216      C1217   1.518       .  S
C1217      F1221   1.384       .  S
C1217      F1222   1.383       .  S
C1217      F1223   1.383       .  S
C1220      F1224   1.383       .  S
C1220      F1225   1.382       .  S
C1220      F1226   1.385       .  S
C1227      C1228   1.407       .  A
C1227      C1232   1.409       .  A
C1227      H1234   1.083       .  S
C1228      C1229   1.419       .  A
C1229      C1230   1.403       .  A
C1229      C1236   1.521       .  S
C1230      C1231   1.400       .  A
C1230      H1235   1.083       .  S
C1231      C1232   1.413       .  A
C1232      C1233   1.516       .  S
C1233      F1237   1.385       .  S
C1233      F1238   1.383       .  S
C1233      F1239   1.382       .  S
C1236      F1240   1.381       .  S
C1236      F1241   1.383   1_455  S
C1236      F1242   1.384       .  S
C1243      C1244   1.403       .  A
C1243      C1248   1.404       .  A
C1243      H1250   1.083       .  S
C1244      C1245   1.417       .  A
C1245      C1246   1.413       .  A
C1245      C1252   1.517       .  S
C1246      C1247   1.409       .  A
C1246      H1251   1.083       .  S
C1247      C1248   1.420       .  A
C1248      C1249   1.521       .  S
C1249      F1253   1.385       .  S
C1249      F1254   1.382       .  S
C1249      F1255   1.382       .  S
C1252      F1256   1.383       .  S
C1252      F1257   1.382       .  S
C1252      F1258   1.385       .  S
C1259      C1260   1.401       .  A
C1259      C1264   1.404       .  A
C1259      H1266   1.085       .  S
C1260      C1261   1.417       .  A
C1261      C1262   1.408       .  A
C1261      C1268   1.519       .  S
C1262      C1263   1.404       .  A
C1262      H1267   1.083       .  S
C1263      C1264   1.417       .  A
C1264      C1265   1.515       .  S
C1265      F1269   1.383       .  S
C1265      F1270   1.383       .  S
C1265      F1271   1.383       .  S
C1268      F1272   1.382       .  S
C1268      F1273   1.383       .  S
C1268      F1274   1.385       .  S
C1275      C1276   1.405       .  A
C1275      C1280   1.411       .  A
C1275      H1282   1.083       .  S
C1276      C1277   1.420       .  A
C1277      C1278   1.405       .  A
C1277      C1284   1.520       .  S
C1278      C1279   1.403       .  A
C1278      H1283   1.084       .  S
C1279      C1280   1.415       .  A
C1280      C1281   1.516       .  S
C1281      F1285   1.384       .  S
C1281      F1286   1.382       .  S
C1281      F1287   1.383       .  S
C1284      F1288   1.383       .  S
C1284      F1289   1.380       .  S
C1284      F1290   1.384       .  S
C1291      C1292   1.402       .  A
C1291      C1296   1.402       .  A
C1291      H1298   1.083       .  S
C1292      C1293   1.413       .  A
C1293      C1294   1.405       .  A
C1293      C1300   1.518       .  S
C1294      C1295   1.403       .  A
C1294      H1299   1.083       .  S
C1295      C1296   1.413       .  A
C1296      C1297   1.518       .  S
C1297      F1301   1.385       .  S
C1297      F1302   1.381       .  S
C1297      F1303   1.383       .  S
C1300      F1304   1.384       .  S
C1300      F1305   1.383       .  S
C1300      F1306   1.383       .  S
C1307      C1308   1.402       .  A
C1307      C1312   1.408       .  A
C1307      H1314   1.083       .  S
C1308      C1309   1.417       .  A
C1309      C1310   1.403       .  A
C1309      C1316   1.521       .  S
C1310      C1311   1.403       .  A
C1310      H1315   1.084       .  S
C1311      C1312   1.416       .  A
C1312      C1313   1.517       .  S
C1313      F1317   1.385       .  S
C1313      F1318   1.382       .  S
C1313      F1319   1.383   1_455  S
C1316      F1320   1.380       .  S
C1316      F1321   1.382       .  S
C1316      F1322   1.384       .  S
C1323      C1324   1.397       .  A
C1323      C1328   1.405       .  A
C1323      H1330   1.083       .  S
C1324      C1325   1.424       .  A
C1325      C1326   1.405       .  A
C1325      C1332   1.514       .  S
C1326      C1327   1.405       .  A
C1326      H1331   1.080       .  S
C1327      C1328   1.433       .  A
C1328      C1329   1.515       .  S
C1329      F1333   1.383       .  S
C1329      F1334   1.381       .  S
C1329      F1335   1.384       .  S
C1332      F1336   1.384       .  S
C1332      F1337   1.384       .  S
C1332      F1338   1.383       .  S
C1339      C1340   1.407       .  A
C1339      C1344   1.409       .  A
C1339      H1346   1.084       .  S
C1340      C1341   1.412       .  A
C1341      C1342   1.397       .  A
C1341      C1348   1.518       .  S
C1342      C1343   1.406       .  A
C1342      H1347   1.085       .  S
C1343      C1344   1.413       .  A
C1344      C1345   1.515       .  S
C1345      F1349   1.385       .  S
C1345      F1350   1.381       .  S
C1345      F1351   1.383       .  S
C1348      F1352   1.383       .  S
C1348      F1353   1.381       .  S
C1348      F1354   1.383       .  S
C1355      C1356   1.409       .  A
C1355      C1360   1.411       .  A
C1355      H1362   1.083       .  S
C1356      C1357   1.417       .  A
C1357      C1358   1.402       .  A
C1357      C1364   1.522       .  S
C1358      C1359   1.403       .  A
C1358      H1363   1.084       .  S
C1359      C1360   1.411       .  A
C1360      C1361   1.516       .  S
C1361      F1365   1.384       .  S
C1361      F1366   1.384       .  S
C1361      F1367   1.383       .  S
C1364      F1368   1.382       .  S
C1364      F1369   1.382       .  S
C1364      F1370   1.385       .  S
C1371      C1372   1.401       .  A
C1371      C1376   1.407       .  A
C1371      H1378   1.085       .  S
C1372      C1373   1.421       .  A
C1373      C1374   1.410       .  A
C1373      C1380   1.520       .  S
C1374      C1375   1.403       .  A
C1374      H1379   1.083       .  S
C1375      C1376   1.421       .  A
C1376      C1377   1.514       .  S
C1377      F1381   1.383       .  S
C1377      F1382   1.383       .  S
C1377      F1383   1.384       .  S
C1380      F1384   1.383       .  S
C1380      F1385   1.381       .  S
C1380      F1386   1.385       .  S
C1387      C1388   1.401       .  A
C1387      C1392   1.402       .  A
C1387      H1394   1.085       .  S
C1388      C1389   1.414       .  A
C1389      C1390   1.409       .  A
C1389      C1396   1.515       .  S
C1390      C1391   1.406       .  A
C1390      H1395   1.083       .  S
C1391      C1392   1.421       .  A
C1392      C1393   1.518       .  S
C1393      F1397   1.383       .  S
C1393      F1398   1.379       .  S
C1393      F1399   1.384       .  S
C1396      F1400   1.382       .  S
C1396      F1401   1.383       .  S
C1396      F1402   1.385       .  S
C1403      C1404   1.400       .  A
C1403      C1408   1.403       .  A
C1403      H1410   1.085       .  S
C1404      C1405   1.415       .  A
C1405      C1406   1.404       .  A
C1405      C1412   1.518       .  S
C1406      C1407   1.403       .  A
C1406      H1411   1.084       .  S
C1407      C1408   1.416       .  A
C1408      C1409   1.515   1_556  S
C1409      F1413   1.384   1_554  S
C1409      F1414   1.382       .  S
C1409      F1415   1.383       .  S
C1412      F1416   1.382       .  S
C1412      F1417   1.383       .  S
C1412      F1418   1.384       .  S
C1419      C1420   1.407       .  A
C1419      C1424   1.410       .  A
C1419      H1426   1.083       .  S
C1420      C1421   1.420       .  A
C1421      C1422   1.402       .  A
C1421      C1428   1.522       .  S
C1422      C1423   1.401       .  A
C1422      H1427   1.083       .  S
C1423      C1424   1.414       .  A
C1424      C1425   1.516       .  S
C1425      F1429   1.384       .  S
C1425      F1430   1.381       .  S
C1425      F1431   1.383       .  S
C1428      F1432   1.382   1_455  S
C1428      F1433   1.382       .  S
C1428      F1434   1.385       .  S
