geometry optimzed in LAMMPS
_audit_creation_date              2020-12-01 
_audit_creation_method            'lammps2cif' 
_symmetry_space_group_name_H-M    'P1' 
_symmetry_Int_Tables_number       1 
_symmetry_cell_setting            triclinic 
loop_ 
_symmetry_equiv_pos_as_xyz 
  x,y,z 
_cell_length_a                    55.57852562 
_cell_length_b                    55.58863593129275 
_cell_length_c                    55.60050918220458 
_cell_angle_alpha                 89.95047761497922 
_cell_angle_beta                  90.10279829449321 
_cell_angle_gamma                 89.97114115144969 
loop_ 
_atom_site_label 
_atom_site_type_symbol 
_atom_site_fract_x 
_atom_site_fract_y 
_atom_site_fract_z 
_atom_site_charge 
O1          O  0.59375904  0.31200638  0.87147007    -0.72200
O2          O  0.65678483  0.28649972  0.87661727    -0.72400
O3          O  0.62238044  0.28608291  0.84267756    -0.72200
O4          O  0.62814169  0.31216142  0.90558046    -0.72200
O5          O  0.61285962  0.27941618  0.92038875    -0.72200
O6          O  0.60856509  0.25287355  0.85789600    -0.72200
O7          O  0.64237602  0.25380489  0.89237498    -0.72200
O8          O  0.57894127  0.27883146  0.88576790    -0.72400
V9          V  0.62494653  0.29856927  0.87438973     1.35200
V10         V  0.61093309  0.26688800  0.88881980     1.35200
C11         C  0.57555988  0.29973567  0.87735348     0.77100
C12         C  0.66041113  0.26589443  0.88552931     0.77100
C13         C  0.61469691  0.26488105  0.83961254     0.77000
C14         C  0.62177354  0.30003640  0.92375767     0.77000
O15         O  0.29376167  0.56765773  0.88676963    -0.72200
O16         O  0.26798822  0.63032889  0.89351382    -0.72400
O17         O  0.26749204  0.59681201  0.85883788    -0.72200
O18         O  0.29440511  0.60127057  0.92147929    -0.72200
O19         O  0.32704968  0.61638451  0.90631131    -0.72200
O20         O  0.30021511  0.61192738  0.84383950    -0.72200
O21         O  0.30064596  0.64549612  0.87842365    -0.72200
O22         O  0.32647552  0.58271352  0.87168425    -0.72400
V23         V  0.28156013  0.59929636  0.88988127     1.35200
V24         V  0.31297871  0.61381520  0.87538321     1.35200
C25         C  0.31435555  0.56445196  0.87774020     0.77100
C26         C  0.27986210  0.64861133  0.88709669     0.77100
C27         C  0.27931771  0.60357545  0.84063211     0.77000
C28         C  0.31521549  0.60993893  0.92459477     0.77000
O29         O  0.37075386  0.39453563  0.80758196    -0.72200
O30         O  0.37879649  0.33142341  0.78324405    -0.72400
O31         O  0.34363208  0.36427560  0.78147878    -0.72200
O32         O  0.40606616  0.36129392  0.80931515    -0.72200
O33         O  0.39091405  0.34540298  0.84159323    -0.72200
O34         O  0.32831527  0.35127901  0.81498018    -0.72200
O35         O  0.36224216  0.31686718  0.81546900    -0.72200
O36         O  0.35692138  0.37981745  0.84099910    -0.72400
V37         V  0.37455156  0.36266404  0.79606857     1.35200
V38         V  0.35991352  0.34864217  0.82763783     1.35200
C39         C  0.36232067  0.39795300  0.82840467     0.77100
C40         C  0.37160735  0.31338955  0.79505807     0.77100
C41         C  0.32530839  0.35842822  0.79359919     0.77000
C42         C  0.40921950  0.35209820  0.82991260     0.77000
O43         O  0.63014769  0.58239537  0.17257267    -0.72200
O44         O  0.62167589  0.64497051  0.19865101    -0.72400
O45         O  0.65716262  0.61205385  0.19920771    -0.72200
O46         O  0.59459880  0.61555035  0.17202143    -0.72200
O47         O  0.57947413  0.60268847  0.20563342    -0.72200
O48         O  0.64260019  0.59372512  0.23045308    -0.72200
O49         O  0.60994119  0.62905699  0.23236895    -0.72200
O50         O  0.61223414  0.56706104  0.20371166    -0.72400
V51         V  0.62560539  0.61340172  0.18619122     1.35200
V52         V  0.61130118  0.59837946  0.21741156     1.35200
C53         C  0.62244734  0.56406124  0.18362681     0.77100
C54         C  0.61494367  0.64760059  0.22019278     0.77100
C55         C  0.66063486  0.60202475  0.21934362     0.77000
C56         C  0.57626970  0.61070162  0.18455910     0.77000
O57         O  0.65714636  0.37694414  0.14478767    -0.72200
O58         O  0.68413967  0.31477647  0.13678498    -0.72400
O59         O  0.68447408  0.34793485  0.17190726    -0.72200
O60         O  0.65701803  0.34354079  0.10947197    -0.72200
O61         O  0.69039948  0.35687331  0.09423766    -0.72200
O62         O  0.71543212  0.36640731  0.15691285    -0.72200
O63         O  0.71756518  0.33092572  0.12456223    -0.72200
O64         O  0.68806675  0.39260840  0.12679033    -0.72400
V65         V  0.67126083  0.34614573  0.14044690     1.35200
V66         V  0.70222187  0.36145846  0.12587304     1.35200
C67         C  0.66795104  0.39539276  0.13705043     0.77100
C68         C  0.70562282  0.31230003  0.12981520     0.77100
C69         C  0.70458153  0.35812872  0.17507351     0.77000
C70         C  0.66949714  0.34847346  0.09111217     0.77000
O71         O  0.40611039  0.68264864  0.12812540    -0.72200
O72         O  0.34312178  0.70825667  0.12195209    -0.72400
O73         O  0.37692990  0.70863592  0.15644906    -0.72200
O74         O  0.37197806  0.68221310  0.09357761    -0.72200
O75         O  0.35653205  0.64965608  0.10863208    -0.72200
O76         O  0.36325422  0.67523796  0.17143659    -0.72200
O77         O  0.32840951  0.67570958  0.13774205    -0.72200
O78         O  0.39128088  0.64940435  0.14226603    -0.72400
V79         V  0.37429199  0.69478418  0.12529217     1.35200
V80         V  0.36014393  0.66314709  0.13970218     1.35200
C81         C  0.40947956  0.66175087  0.13649492     0.77100
C82         C  0.32501111  0.69640931  0.12888209     0.77100
C83         C  0.37116070  0.69629555  0.17467872     0.77000
C84         C  0.36295506  0.66156269  0.09037467     0.77000
O85         O  0.61430438  0.17898882  0.59314662    -0.72200
O86         O  0.60543857  0.20257383  0.65646817    -0.72400
O87         O  0.64033182  0.20605865  0.62347758    -0.72200
O88         O  0.57931992  0.17536925  0.62619935    -0.72200
O89         O  0.59589234  0.14470176  0.64398203    -0.72200
O90         O  0.65730796  0.17253240  0.63437922    -0.72200
O91         O  0.62528921  0.17196967  0.67053459    -0.72200
O92         O  0.62801446  0.14543946  0.60780201    -0.72400
V93         V  0.61011244  0.19014851  0.62507340     1.35200
V94         V  0.62628223  0.15923583  0.63890377     1.35200
C95         C  0.62260488  0.15810354  0.58967766     0.77100
C96         C  0.61447570  0.19163413  0.67427129     0.77100
C97         C  0.65927293  0.19419105  0.62778970     0.77000
C98         C  0.57716498  0.15514198  0.63639529     0.77000
O99         O  0.69476595  0.10177178  0.42046694    -0.72200
O100        O  0.71896065  0.09239415  0.35732557    -0.72400
O101        O  0.72108431  0.12802711  0.38974768    -0.72200
O102        O  0.69264474  0.06594764  0.38800687    -0.72200
O103        O  0.66123039  0.08117414  0.37032427    -0.72200
O104        O  0.68723587  0.14366618  0.37786584    -0.72200
O105        O  0.68744099  0.11037060  0.34275724    -0.72200
O106        O  0.66101039  0.11450007  0.40538534    -0.72400
V107        V  0.70625148  0.09728982  0.38863828     1.35200
V108        V  0.67483690  0.11211130  0.37437444     1.35200
C109        C  0.67369027  0.10974220  0.42367101     0.77100
C110        C  0.70748548  0.10020536  0.33926009     0.77100
C111        C  0.70873053  0.14646769  0.38473715     0.77000
C112        C  0.67244143  0.06292212  0.37797072     0.77000
O113        O  0.39183858  0.11776919  0.67477158    -0.72200
O114        O  0.32988265  0.10975335  0.70188673    -0.72400
O115        O  0.36300799  0.14490109  0.70209124    -0.72200
O116        O  0.35862683  0.08255727  0.67475072    -0.72200
O117        O  0.37270608  0.06721252  0.70783656    -0.72200
O118        O  0.38096534  0.12983041  0.73338823    -0.72200
O119        O  0.34601166  0.09675370  0.73506968    -0.72200
O120        O  0.40772990  0.10033387  0.70597548    -0.72400
V121        V  0.36117355  0.11346200  0.68898027     1.35200
V122        V  0.37659544  0.09881817  0.71994022     1.35200
C123        C  0.41033053  0.11014544  0.68560867     0.77100
C124        C  0.32736803  0.10217867  0.72316652     0.77100
C125        C  0.37289498  0.14801572  0.72235487     0.77000
C126        C  0.36423669  0.06417179  0.68694789     0.77000
O127        O  0.32556794  0.84372810  0.61079065    -0.72200
O128        O  0.29869491  0.85272079  0.67278903    -0.72400
O129        O  0.29838605  0.81709279  0.64006062    -0.72200
O130        O  0.32589632  0.87941993  0.64363524    -0.72200
O131        O  0.29239989  0.89476872  0.63055910    -0.72200
O132        O  0.26765250  0.83184060  0.62090272    -0.72200
O133        O  0.26513130  0.86434984  0.65633840    -0.72200
O134        O  0.29490628  0.86214627  0.59492144    -0.72400
V135        V  0.31156208  0.84853895  0.64149544     1.35200
V136        V  0.28063187  0.86304166  0.62594673     1.35200
C137        C  0.31487245  0.85155969  0.59228892     0.77100
C138        C  0.27710527  0.85946576  0.67506527     0.77100
C139        C  0.27855886  0.81373231  0.62938288     0.77000
C140        C  0.31347405  0.89782299  0.63863509     0.77000
O141        O  0.57931736  0.85885728  0.30824639    -0.72200
O142        O  0.64256993  0.86693712  0.28428157    -0.72400
O143        O  0.60930213  0.83214034  0.28150689    -0.72200
O144        O  0.61276742  0.89365947  0.31109842    -0.72200
O145        O  0.62997888  0.87740795  0.34225938    -0.72200
O146        O  0.62099542  0.81563909  0.31498029    -0.72200
O147        O  0.65685586  0.84816444  0.31546109    -0.72200
O148        O  0.59395975  0.84501141  0.34174639    -0.72400
V149        V  0.61123136  0.86261072  0.29690095     1.35200
V150        V  0.62513695  0.84686560  0.32801997     1.35200
C151        C  0.57583291  0.85067300  0.32916624     0.77100
C152        C  0.66049470  0.85863838  0.29559512     0.77100
C153        C  0.61412019  0.81334485  0.29342568     0.77000
C154        C  0.62289761  0.89604897  0.33134448     0.77000
O155        O  0.35503054  0.81451948  0.40616110    -0.72200
O156        O  0.36461756  0.78723912  0.34430813    -0.72400
O157        O  0.32870935  0.78702376  0.37670229    -0.72200
O158        O  0.39090302  0.81473098  0.37355602    -0.72200
O159        O  0.40630338  0.78157359  0.38739233    -0.72200
O160        O  0.34343046  0.75621209  0.39573002    -0.72200
O161        O  0.37670838  0.75396977  0.36096769    -0.72200
O162        O  0.37296825  0.78375961  0.42233220    -0.72400
V163        V  0.36009980  0.80029247  0.37552557     1.35200
V164        V  0.37459984  0.76949675  0.39134188     1.35200
C165        C  0.36257597  0.80385069  0.42480646     0.77100
C166        C  0.37186185  0.76578651  0.34213503     0.77100
C167        C  0.32536139  0.76706809  0.38709488     0.77000
C168        C  0.40931150  0.80251655  0.37899276     0.77000
O169        O  0.07763042  0.78148818  0.12799671    -0.72200
O170        O  0.14038480  0.75568230  0.12135805    -0.72400
O171        O  0.10621775  0.75399821  0.15557169    -0.72200
O172        O  0.11172851  0.78333924  0.09397046    -0.72200
O173        O  0.12872274  0.81442134  0.11050129    -0.72200
O174        O  0.11939603  0.78685629  0.17204092    -0.72200
O175        O  0.15513136  0.78691867  0.13958579    -0.72200
O176        O  0.09273935  0.81434413  0.14275115    -0.72400
V177        V  0.10926710  0.76922557  0.12502741     1.35200
V178        V  0.12366839  0.80001734  0.14091506     1.35200
C179        C  0.07447379  0.80237682  0.13635919     0.77100
C180        C  0.15848402  0.76686400  0.12941632     0.77100
C181        C  0.11154339  0.76565295  0.17439357     0.77000
C182        C  0.12181545  0.80361838  0.09176523     0.77000
O183        O  0.90589544  0.85912507  0.20595923    -0.72200
O184        O  0.84387752  0.86727415  0.23288319    -0.72400
O185        O  0.87725562  0.83240006  0.23413001    -0.72200
O186        O  0.87247327  0.89393880  0.20445386    -0.72200
O187        O  0.85463096  0.87753429  0.17377073    -0.72200
O188        O  0.86304823  0.81603291  0.20163499    -0.72200
O189        O  0.82813608  0.84922738  0.20201691    -0.72200
O190        O  0.88989090  0.84439739  0.17350345    -0.72400
V191        V  0.87459276  0.86290277  0.21874846     1.35200
V192        V  0.85927235  0.84712778  0.18832867     1.35200
C193        C  0.90850284  0.85045693  0.18512740     0.77100
C194        C  0.82543978  0.85929179  0.22222336     0.77100
C195        C  0.87113690  0.81365522  0.22274923     0.77000
C196        C  0.86210915  0.89620356  0.18429370     0.77000
O197        O  0.15922953  0.84417108  0.90699655    -0.72200
O198        O  0.18492212  0.85139124  0.84440706    -0.72400
O199        O  0.18572885  0.81663501  0.87801861    -0.72200
O200        O  0.15853426  0.87905327  0.87337904    -0.72200
O201        O  0.19207632  0.89435973  0.88634333    -0.72200
O202        O  0.21730748  0.83177114  0.89538074    -0.72200
O203        O  0.21855632  0.86413916  0.85976170    -0.72200
O204        O  0.19067877  0.86185553  0.92207757    -0.72400
V205        V  0.17269599  0.84811952  0.87601968     1.35200
V206        V  0.20401871  0.86277557  0.89063373     1.35200
C207        C  0.17053177  0.85177233  0.92519312     0.77100
C208        C  0.20626764  0.85857662  0.84142488     0.77100
C209        C  0.20606051  0.81353912  0.88779738     0.77000
C210        C  0.17102500  0.89741310  0.87828828     0.77000
O211        O  0.09631314  0.11788518  0.84155684    -0.72200
O212        O  0.15828545  0.10858768  0.81483880    -0.72400
O213        O  0.12594716  0.14474863  0.81505885    -0.72200
O214        O  0.12857840  0.08180639  0.84121483    -0.72200
O215        O  0.11540101  0.06736034  0.80738714    -0.72200
O216        O  0.10688126  0.13077172  0.78394114    -0.72200
O217        O  0.14192114  0.09776869  0.78099612    -0.72200
O218        O  0.08034392  0.10050172  0.81039640    -0.72400
V219        V  0.12697679  0.11298678  0.82757068     1.35200
V220        V  0.11141395  0.09934233  0.79628448     1.35200
C221        C  0.07777086  0.11054752  0.83063403     0.77100
C222        C  0.16063981  0.10203080  0.79322436     0.77100
C223        C  0.11529062  0.14857462  0.79530571     0.77000
C224        C  0.12331307  0.06377444  0.82840937     0.77000
O225        O  0.82479843  0.08086141  0.14257256    -0.72200
O226        O  0.79873024  0.14326922  0.13435916    -0.72400
O227        O  0.79788580  0.11005341  0.16949859    -0.72200
O228        O  0.82563448  0.11400158  0.10742618    -0.72200
O229        O  0.79226547  0.10104807  0.09173690    -0.72200
O230        O  0.76662888  0.09213057  0.15437744    -0.72200
O231        O  0.76521212  0.12756874  0.12172320    -0.72200
O232        O  0.79372146  0.06548938  0.12448507    -0.72400
V233        V  0.81115330  0.11173897  0.13815334     1.35200
V234        V  0.78006564  0.09682650  0.12332837     1.35200
C235        C  0.81381247  0.06255738  0.13479614     0.77100
C236        C  0.77732764  0.14602735  0.12718409     0.77100
C237        C  0.77771927  0.10001322  0.17262561     0.77000
C238        C  0.81345005  0.10885495  0.08892347     0.77000
O239        O  0.89218337  0.14760442  0.87009367    -0.72200
O240        O  0.82983325  0.17368173  0.87922917    -0.72400
O241        O  0.86247776  0.17471161  0.84384248    -0.72200
O242        O  0.85950643  0.14635668  0.90566665    -0.72200
O243        O  0.87359835  0.17918228  0.92145341    -0.72200
O244        O  0.87977093  0.20628319  0.85899926    -0.72200
O245        O  0.84562869  0.20660921  0.89306067    -0.72200
O246        O  0.90784042  0.17889165  0.88754102    -0.72400
V247        V  0.86131964  0.16119735  0.87505294     1.35200
V248        V  0.87643941  0.19212794  0.88998502     1.35200
C249        C  0.91061040  0.15878145  0.87732513     0.77100
C250        C  0.82707734  0.19479328  0.88722970     0.77100
C251        C  0.87184698  0.19518022  0.84076771     0.77000
C252        C  0.86550489  0.15809356  0.92417891     0.77000
O253        O  0.15842895  0.61744697  0.61029621    -0.72200
O254        O  0.18571270  0.60980396  0.67215976    -0.72400
O255        O  0.18573350  0.64466856  0.63884220    -0.72200
O256        O  0.15848111  0.58216716  0.64353309    -0.72200
O257        O  0.19127262  0.56685291  0.62889305    -0.72200
O258        O  0.21733581  0.62948917  0.62166709    -0.77000
O259        O  0.21852740  0.59584604  0.65626879    -0.72200
O260        O  0.18984879  0.60055622  0.59431647    -0.72400
V261        V  0.17269175  0.61316668  0.64089458     1.35200
V262        V  0.20362026  0.59846052  0.62556799     1.35200
C263        C  0.16950262  0.61045072  0.59178395     0.77100
C264        C  0.20688818  0.60197081  0.67481941     0.77100
C265        C  0.20611568  0.64776363  0.62923588     0.77000
C266        C  0.17043315  0.56378143  0.63741421     0.77000
O267        O  0.09213921  0.34420663  0.67634260    -0.72200
O268        O  0.15489958  0.35172283  0.70186173    -0.72400
O269        O  0.12129242  0.31712500  0.70335364    -0.72200
O270        O  0.12578442  0.37895244  0.67489021    -0.72200
O271        O  0.11334275  0.39494488  0.70824551    -0.72200
O272        O  0.10371615  0.33267261  0.73453991    -0.72200
O273        O  0.13964145  0.36462955  0.73543425    -0.72200
O274        O  0.07728428  0.36271625  0.70734290    -0.72400
V275        V  0.12321178  0.34831225  0.68970819     1.35200
V276        V  0.10874962  0.36351181  0.72076487     1.35200
C277        C  0.07401285  0.35228255  0.68739480     0.77100
C278        C  0.15791205  0.35879160  0.72323629     0.77100
C279        C  0.11146832  0.31428628  0.72365866     0.77000
C280        C  0.12106150  0.39758887  0.68701151     0.77000
O281        O  0.07892073  0.67841606  0.38691459    -0.72200
O282        O  0.14132655  0.70544910  0.39320029    -0.72400
O283        O  0.10725045  0.70534910  0.35878132    -0.72200
O284        O  0.11278140  0.67843149  0.42135757    -0.72200
O285        O  0.12951390  0.64657288  0.40615131    -0.72200
O286        O  0.12195184  0.67256395  0.34351369    -0.72200
O287        O  0.15674735  0.67342531  0.37705050    -0.72200
O288        O  0.09461305  0.64563913  0.37263181    -0.72400
V289        V  0.11038349  0.69129308  0.38979138     1.35200
V290        V  0.12538182  0.66017401  0.37514403     1.35200
C291        C  0.07611664  0.65742735  0.37862848     0.77100
C292        C  0.15970018  0.69409087  0.38604822     0.77100
C293        C  0.11338021  0.69341677  0.34042181     0.77000
C294        C  0.12243012  0.65805280  0.42442527     0.77000
O295        O  0.88864378  0.31466156  0.64571852    -0.72200
O296        O  0.82721382  0.28767113  0.63430903    -0.72400
O297        O  0.85874853  0.28696540  0.67098048    -0.72200
O298        O  0.85714173  0.31528511  0.60890595    -0.72200
O299        O  0.87103749  0.28212555  0.59366703    -0.72200
O300        O  0.87820710  0.25636364  0.65649812    -0.72200
O301        O  0.84399242  0.25441753  0.62247573    -0.72200
O302        O  0.90531672  0.28422851  0.62772587    -0.72400
V303        V  0.85826715  0.30055437  0.63967694     1.35200
V304        V  0.87436722  0.26987610  0.62534311     1.35200
C305        C  0.90741685  0.30418082  0.63844190     0.77100
C306        C  0.82510272  0.26627149  0.62699449     0.77100
C307        C  0.86924747  0.26706767  0.67444306     0.77000
C308        C  0.86298385  0.30318336  0.59057403     0.77000
O309        O  0.90735583  0.59979425  0.30912701    -0.72200
O310        O  0.84509239  0.59533339  0.28137555    -0.72400
O311        O  0.87966247  0.62906949  0.28238233    -0.72200
O312        O  0.87277222  0.56612692  0.30833064    -0.72200
O313        O  0.85599532  0.58138993  0.34013765    -0.72200
O314        O  0.86509239  0.64401238  0.31535529    -0.72200
O315        O  0.82970652  0.61136786  0.31345576    -0.72200
O316        O  0.89173332  0.61389156  0.34199164    -0.72400
V317        V  0.87594658  0.59784903  0.29592326     1.35200
V318        V  0.86099275  0.61235735  0.32711256     1.35200
C319        C  0.91019338  0.60766391  0.33026400     0.77100
C320        C  0.82676412  0.60271179  0.29263197     0.77100
C321        C  0.87350760  0.64730541  0.29453034     0.77000
C322        C  0.86265489  0.56311558  0.32846811     0.77000
O323        O  0.79263389  0.35937965  0.42140718    -0.72200
O324        O  0.76701396  0.36636824  0.35852312    -0.72400
O325        O  0.76592174  0.33177920  0.39202651    -0.72200
O326        O  0.79370577  0.39398996  0.38773687    -0.72200
O327        O  0.82495627  0.37846831  0.37013307    -0.72200
O328        O  0.79960459  0.31606584  0.37991466    -0.72200
O329        O  0.79846128  0.34842750  0.34387508    -0.72200
O330        O  0.82614142  0.34628887  0.40622214    -0.72400
V331        V  0.78043243  0.36259505  0.38968319     1.35200
V332        V  0.81168713  0.34760730  0.37534908     1.35200
C333        C  0.81387935  0.35183608  0.42452951     0.77100
C334        C  0.77824150  0.35831447  0.34048104     0.77100
C335        C  0.77823049  0.31330859  0.38708709     0.77000
C336        C  0.81370031  0.39683181  0.37732121     0.77000
C337        C  0.83154991  0.51195643  0.35988530    -0.11200
C338        C  0.84661748  0.49238803  0.35442829     0.05900
C339        C  0.86772653  0.49660166  0.34107738    -0.10000
C340        C  0.87309223  0.51963573  0.33259300    -0.11600
C341        C  0.85783020  0.53895582  0.33792946    -0.01400
C342        C  0.83726923  0.53502766  0.35195323    -0.10500
C343        C  0.83956066  0.46759054  0.36143963     0.05900
H344        H  0.88005143  0.48209022  0.33700472     0.07900
H345        H  0.88918594  0.52238721  0.32198905     0.11300
H346        H  0.82511505  0.54970294  0.35606410     0.11600
H347        H  0.81490135  0.50941397  0.36961133     0.07900
C348        C  0.82650031  0.46326062  0.38270254    -0.11200
C349        C  0.81814114  0.44018159  0.38807855    -0.10500
C350        C  0.82330027  0.42095030  0.37264903    -0.01400
C351        C  0.83694997  0.42501866  0.35188362    -0.11600
C352        C  0.84475421  0.44812161  0.34617146    -0.10000
H353        H  0.82257605  0.47770174  0.39514031     0.07900
H354        H  0.80773569  0.43733315  0.40428321     0.11600
H355        H  0.84082839  0.41044094  0.33955400     0.11300
H356        H  0.85418557  0.45076894  0.32937368     0.07900
C357        C  0.85789603  0.30686624  0.52291539    -0.11200
C358        C  0.84874530  0.33020226  0.51966805     0.05900
C359        C  0.84574600  0.34513603  0.53979301    -0.10000
C360        C  0.85116562  0.33663738  0.56282765    -0.11600
C361        C  0.85959032  0.31302348  0.56613957    -0.01400
C362        C  0.86326593  0.29835517  0.54592149    -0.10500
C363        C  0.84101493  0.33824415  0.49549473     0.05900
H364        H  0.83892428  0.36327254  0.53771580     0.07900
H365        H  0.84824687  0.34837574  0.57808298     0.11300
H366        H  0.86961584  0.28003918  0.54791898     0.11600
H367        H  0.86006536  0.29487284  0.50773086     0.07900
C368        C  0.85521039  0.33324071  0.47524885    -0.11200
C369        C  0.84674542  0.33851056  0.45219435    -0.10500
C370        C  0.82385563  0.34875248  0.44894912    -0.01400
C371        C  0.81004800  0.35463160  0.46925373    -0.11600
C372        C  0.81858146  0.34946915  0.49232743    -0.10000
H373        H  0.87269102  0.32484960  0.47725298     0.07900
H374        H  0.85784751  0.33390723  0.43688552     0.11600
H375        H  0.79235562  0.36257297  0.46729845     0.11300
H376        H  0.80719411  0.35332228  0.50763647     0.07900
C377        C  0.97797304  0.60920074  0.33562786    -0.11200
C378        C  0.98114204  0.62102843  0.35774484     0.05900
C379        C  0.96079219  0.62640455  0.37171963    -0.10000
C380        C  0.93772146  0.62116000  0.36322429    -0.11600
C381        C  0.93453958  0.61043129  0.34058193    -0.01400
C382        C  0.95491040  0.60393877  0.32714723    -0.10500
C383        C  0.00539005  0.62931217  0.36525274     0.05900
H384        H  0.96268634  0.63512108  0.38902735     0.07900
H385        H  0.92236009  0.62620350  0.37406424     0.11300
H386        H  0.95302654  0.59556578  0.30966397     0.11600
H387        H  0.99324820  0.60501135  0.32432292     0.07900
C388        C  0.02584874  0.61510141  0.36093376    -0.11200
C389        C  0.04883312  0.62397752  0.36590909    -0.10500
C390        C  0.05181428  0.64722607  0.37534113    -0.01400
C391        C  0.03134687  0.66112149  0.38042449    -0.11600
C392        C  0.00838601  0.65227860  0.37539703    -0.10000
H393        H  0.02410070  0.59721830  0.35342998     0.07900
H394        H  0.06428455  0.61280751  0.36191856     0.11600
H395        H  0.03307963  0.67912402  0.38765356     0.11300
H396        H  0.99303290  0.66382631  0.37860030     0.07900
C397        C  0.00684631  0.35766695  0.67766002    -0.11200
C398        C  0.00251532  0.33882597  0.66127553     0.05900
C399        C  0.02225204  0.32555371  0.65263915    -0.10000
C400        C  0.04552955  0.33061989  0.66050328    -0.11600
C401        C  0.04963269  0.34872076  0.67757861    -0.01400
C402        C  0.03013576  0.36236278  0.68594898    -0.10500
C403        C  0.97754715  0.33194729  0.65435976     0.05900
H404        H  0.01974646  0.31057619  0.64048201     0.07900
H405        H  0.06023710  0.31968054  0.65390574     0.11300
H406        H  0.03287909  0.37656467  0.69899033     0.11600
H407        H  0.99224609  0.36868005  0.68431128     0.07900
C408        C  0.95856173  0.33433844  0.67091468    -0.11200
C409        C  0.93555649  0.32606617  0.66524919    -0.10500
C410        C  0.93117547  0.31463465  0.64322779    -0.01400
C411        C  0.94980633  0.31252462  0.62644603    -0.11600
C412        C  0.97268321  0.32148131  0.63178223    -0.10000
H413        H  0.96156185  0.34176838  0.68864408     0.07900
H414        H  0.92139521  0.32766743  0.67852259     0.11600
H415        H  0.94663789  0.30399816  0.60921879     0.11300
H416        H  0.98659561  0.31990645  0.61828524     0.07900
C417        C  0.13890476  0.64163575  0.54007132    -0.11200
C418        C  0.14253943  0.62532150  0.52105593     0.05900
C419        C  0.15402733  0.60325080  0.52608220    -0.10000
C420        C  0.16270675  0.59823198  0.54915415    -0.11600
C421        C  0.15929061  0.61476721  0.56781388    -0.01400
C422        C  0.14687843  0.63623540  0.56324839    -0.10500
C423        C  0.13577062  0.63201060  0.49596063     0.05900
H424        H  0.15659120  0.58989781  0.51218337     0.07900
H425        H  0.17203989  0.58143116  0.55244582     0.11300
H426        H  0.14428538  0.64934670  0.57741746     0.11600
H427        H  0.13070835  0.65902565  0.53701498     0.07900
C428        C  0.11649754  0.64786479  0.49137404    -0.11200
C429        C  0.11191586  0.65613352  0.46806891    -0.10500
C430        C  0.12603254  0.64819686  0.44876246    -0.01400
C431        C  0.14447435  0.63151049  0.45303389    -0.11600
C432        C  0.14949400  0.62374032  0.47637331    -0.10000
H433        H  0.10504782  0.65414467  0.50577449     0.07900
H434        H  0.09738079  0.66880127  0.46515166     0.11600
H435        H  0.15572107  0.62523431  0.43843682     0.11300
H436        H  0.16477826  0.61197878  0.47903250     0.07900
C437        C  0.16632720  0.49585840  0.64019920    -0.11200
C438        C  0.14388082  0.49249671  0.65130449     0.05900
C439        C  0.12949725  0.51272905  0.65613211    -0.10000
C440        C  0.13780604  0.53587214  0.65095227    -0.11600
C441        C  0.16065956  0.53927379  0.64077786    -0.01400
C442        C  0.17462718  0.51900614  0.63499081    -0.10500
C443        C  0.13630962  0.46820640  0.65942051     0.05900
H444        H  0.11194637  0.51068022  0.66430395     0.07900
H445        H  0.12655457  0.55112374  0.65544271     0.11300
H446        H  0.19230571  0.52104518  0.62708847     0.11600
H447        H  0.17793483  0.48067140  0.63645929     0.07900
C448        C  0.14084026  0.44773025  0.64530766    -0.11200
C449        C  0.13528140  0.42476832  0.65397085    -0.10500
C450        C  0.12514955  0.42184773  0.67693861    -0.01400
C451        C  0.12008105  0.44234226  0.69076288    -0.11600
C452        C  0.12560432  0.46524561  0.68211257    -0.10000
H453        H  0.14885144  0.44945895  0.62765224     0.07900
H454        H  0.13935451  0.40929160  0.64288303     0.11600
H455        H  0.11234440  0.44067382  0.70854960     0.11300
H456        H  0.12224362  0.48060402  0.69358944     0.07900
C457        C  0.86767721  0.20176308  0.77322609    -0.11200
C458        C  0.87420047  0.22592834  0.76986623     0.05900
C459        C  0.88056006  0.23982453  0.79002336    -0.10000
C460        C  0.88015910  0.22979250  0.81309090    -0.11600
C461        C  0.87324086  0.20573096  0.81643057    -0.01400
C462        C  0.86714463  0.19179060  0.79625249    -0.10500
C463        C  0.87366725  0.23671244  0.74547244     0.05900
H464        H  0.88590873  0.25843381  0.78792952     0.07900
H465        H  0.88497195  0.24094637  0.82831961     0.11300
H466        H  0.86177349  0.17317633  0.79825874     0.11600
H467        H  0.86240961  0.19069698  0.75808384     0.07900
C468        C  0.88215013  0.22376701  0.72549664    -0.11200
C469        C  0.88086085  0.23366292  0.70241554    -0.10500
C470        C  0.87097186  0.25665515  0.69884313    -0.01400
C471        C  0.86263250  0.26964350  0.71882826    -0.11600
C472        C  0.86401104  0.25979427  0.74189802    -0.10000
H473        H  0.88990394  0.20603349  0.72774716     0.07900
H474        H  0.88748558  0.22324878  0.68735850     0.11600
H475        H  0.85492681  0.28740639  0.71663987     0.11300
H476        H  0.85703843  0.27005412  0.75690037     0.07900
C477        C  0.85630869  0.12588663  0.03902824    -0.11200
C478        C  0.84176263  0.12298480  0.01856774     0.05900
C479        C  0.81823015  0.11416964  0.02132994    -0.10000
C480        C  0.80920763  0.10897620  0.04416163    -0.11600
C481        C  0.82353893  0.11252110  0.06467251    -0.01400
C482        C  0.84728730  0.12070097  0.06186346    -0.10500
C483        C  0.85045140  0.13053118  0.99457079     0.05900
H484        H  0.80649198  0.11209440  0.00590581     0.07900
H485        H  0.79081154  0.10277592  0.04578525     0.11300
H486        H  0.85878781  0.12349892  0.07735124     0.11600
H487        H  0.87459066  0.13240640  0.03737963     0.07900
C488        C  0.86283510  0.15239317  0.99181976    -0.11200
C489        C  0.86861857  0.16093766  0.96893552    -0.10500
C490        C  0.86215987  0.14775757  0.94838721    -0.01400
C491        C  0.85086444  0.12532440  0.95119647    -0.11600
C492        C  0.84501997  0.11681905  0.97407349    -0.10000
H493        H  0.86708357  0.16343088  0.00729037     0.07900
H494        H  0.87740691  0.17824638  0.96731356     0.11600
H495        H  0.84581369  0.11468663  0.93568202     0.11300
H496        H  0.83581726  0.09973028  0.97572061     0.07900
C497        C  0.11671190  0.24710649  0.73190236    -0.11200
C498        C  0.10819020  0.24401578  0.75543583     0.05900
C499        C  0.10004172  0.26411827  0.76835120    -0.10000
C500        C  0.10059500  0.28699826  0.75788485    -0.11600
C501        C  0.10954822  0.29011031  0.73444839    -0.01400
C502        C  0.11744384  0.26991305  0.72153590    -0.10500
C503        C  0.10852328  0.21984979  0.76646635     0.05900
H504        H  0.09324497  0.26209661  0.78648501     0.07900
H505        H  0.09435971  0.30226140  0.76824058     0.11300
H506        H  0.12446672  0.27174493  0.70347236     0.11600
H507        H  0.12335237  0.23190384  0.72170015     0.07900
C508        C  0.10026397  0.19991029  0.75338989    -0.11200
C509        C  0.10223106  0.17679513  0.76292313    -0.10500
C510        C  0.11263770  0.17315512  0.78567210    -0.01400
C511        C  0.12048463  0.19315852  0.79898233    -0.11600
C512        C  0.11834425  0.21634657  0.78948606    -0.10000
H513        H  0.09242331  0.20222458  0.73568922     0.07900
H514        H  0.09587661  0.16174233  0.75231859     0.11600
H515        H  0.12847793  0.19087523  0.81661441     0.11300
H516        H  0.12501658  0.23146450  0.79980228     0.07900
C517        C  0.97663349  0.14446494  0.88485347    -0.11200
C518        C  0.98168863  0.13235451  0.86318310     0.05900
C519        C  0.96272155  0.12826025  0.84686994    -0.10000
C520        C  0.93947731  0.13616118  0.85197547    -0.11600
C521        C  0.93476869  0.14893367  0.87314828    -0.01400
C522        C  0.95345740  0.15299860  0.88960617    -0.10500
C523        C  0.00672285  0.12516973  0.85688001     0.05900
H524        H  0.96586867  0.11963523  0.82972887     0.07900
H525        H  0.92533328  0.13311248  0.83889302     0.11300
H526        H  0.95009536  0.16267829  0.90616393     0.11600
H527        H  0.99056845  0.14751878  0.89811782     0.07900
C528        C  0.02643956  0.13920949  0.86434724    -0.11200
C529        C  0.04968746  0.13374780  0.85661953    -0.10500
C530        C  0.05368038  0.11449123  0.84083713    -0.01400
C531        C  0.03425204  0.10001968  0.83385745    -0.11600
C532        C  0.01107245  0.10507858  0.84207912    -0.10000
H533        H  0.02390922  0.15504201  0.87535636     0.07900
H534        H  0.06440526  0.14528176  0.86212115     0.11600
H535        H  0.03696853  0.08488754  0.82190401     0.11300
H536        H  0.99653522  0.09338957  0.83651225     0.07900
C537        C  0.16839163  0.96496076  0.87245749    -0.11200
C538        C  0.14589829  0.96828637  0.86143265     0.05900
C539        C  0.13112086  0.94826461  0.85717289    -0.10000
C540        C  0.13893696  0.92521535  0.86339577    -0.11600
C541        C  0.16171922  0.92182826  0.87384113    -0.01400
C542        C  0.17624482  0.94194429  0.87858616    -0.10500
C543        C  0.13838030  0.99252413  0.85360867     0.05900
H544        H  0.11360389  0.95045248  0.84889110     0.07900
H545        H  0.12737100  0.91001987  0.85954712     0.11300
H546        H  0.19393436  0.93986728  0.88652120     0.11600
H547        H  0.18022637  0.98010250  0.87566514     0.07900
C548        C  0.14183143  0.01239691  0.86876504    -0.11200
C549        C  0.13623562  0.03551669  0.86079880    -0.10500
C550        C  0.12717104  0.03918151  0.83749374    -0.01400
C551        C  0.12319320  0.01923311  0.82251219    -0.11600
C552        C  0.12873114  0.99608461  0.83052402    -0.10000
H553        H  0.14903944  0.01004339  0.88672413     0.07900
H554        H  0.13944822  0.05056208  0.87274038     0.11600
H555        H  0.11634970  0.02155205  0.80440933     0.11300
H556        H  0.12618927  0.98104594  0.81840937     0.07900
C557        C  0.88130468  0.76360903  0.26799851    -0.11200
C558        C  0.87581261  0.74311562  0.25421256     0.05900
C559        C  0.86902565  0.74609916  0.23005528    -0.10000
C560        C  0.86769659  0.76900636  0.21990318    -0.11600
C561        C  0.87311975  0.78949408  0.23365731    -0.01400
C562        C  0.88000624  0.78658967  0.25780215    -0.10500
C563        C  0.87655011  0.71871146  0.26501408     0.05900
H564        H  0.86426916  0.73073022  0.21908408     0.07900
H565        H  0.86225823  0.77065635  0.20126060     0.11300
H566        H  0.88426134  0.80206214  0.26883792     0.11600
H567        H  0.88678635  0.76186026  0.28661444     0.07900
C568        C  0.88524832  0.69899673  0.25176834    -0.11200
C569        C  0.88470148  0.67580466  0.26147162    -0.10500
C570        C  0.87548805  0.67188307  0.28463430    -0.01400
C571        C  0.86728827  0.69165015  0.29807400    -0.11600
C572        C  0.86778473  0.71480061  0.28836199    -0.10000
H573        H  0.89244687  0.70150181  0.23385731     0.07900
H574        H  0.89123357  0.66093162  0.25074057     0.11600
H575        H  0.86002809  0.68919116  0.31596862     0.11300
H576        H  0.86067087  0.72954521  0.29889640     0.07900
C577        C  0.84698260  0.01104455  0.16369680    -0.11200
C578        C  0.84046207  0.99147681  0.14902544     0.05900
C579        C  0.82603601  0.99592620  0.12860720    -0.10000
C580        C  0.81751952  0.01909925  0.12369563    -0.11600
C581        C  0.82384441  0.03836880  0.13867448    -0.01400
C582        C  0.83903902  0.03422430  0.15838677    -0.10500
C583        C  0.84743021  0.96651842  0.15599030     0.05900
H584        H  0.82108039  0.98152070  0.11650659     0.07900
H585        H  0.80596795  0.02195396  0.10824071     0.11300
H586        H  0.84395965  0.04878567  0.17035627     0.11600
H587        H  0.85748674  0.00846960  0.17989327     0.07900
C588        C  0.86866555  0.96210653  0.16919976    -0.11200
C589        C  0.87364057  0.93918734  0.17826684    -0.10500
C590        C  0.85794709  0.92004505  0.17360446    -0.01400
C591        C  0.83746357  0.92400529  0.15938147    -0.11600
C592        C  0.83207650  0.94702735  0.15093782    -0.10000
H593        H  0.88135767  0.97639212  0.17286244     0.07900
H594        H  0.88973128  0.93641992  0.18894488     0.11600
H595        H  0.82500922  0.90947910  0.15569056     0.11300
H596        H  0.81534893  0.94959438  0.14129430     0.07900
C597        C  0.10053016  0.72065346  0.22453123    -0.11200
C598        C  0.10628327  0.73435441  0.24500440     0.05900
C599        C  0.11284238  0.75856276  0.24204920    -0.10000
C600        C  0.11419505  0.76871518  0.21913314    -0.11600
C601        C  0.10895145  0.75492664  0.19861125    -0.01400
C602        C  0.10178876  0.73086353  0.20154368    -0.10500
C603        C  0.10666264  0.72327793  0.26929508     0.05900
H604        H  0.11766324  0.76948926  0.25743566     0.07900
H605        H  0.11971731  0.78732269  0.21748983     0.11300
H606        H  0.09750715  0.71983437  0.18607342     0.11600
H607        H  0.09516268  0.70201305  0.22630746     0.07900
C608        C  0.09796237  0.73594033  0.28935949    -0.11200
C609        C  0.09993042  0.72616946  0.31245700    -0.10500
C610        C  0.11065077  0.70353619  0.31596016    -0.01400
C611        C  0.11891815  0.69068142  0.29585199    -0.11600
C612        C  0.11693407  0.70044267  0.27277166    -0.10000
H613        H  0.08970966  0.75346203  0.28718493     0.07900
H614        H  0.09321144  0.73641666  0.32758070     0.11600
H615        H  0.12726181  0.67319809  0.29797253     0.11300
H616        H  0.12408559  0.69040732  0.25770467     0.07900
C617        C  0.11607416  0.81799163  0.02567853    -0.11200
C618        C  0.13741568  0.83098144  0.02138534     0.05900
C619        C  0.15258919  0.83620834  0.04099251    -0.10000
C620        C  0.14690632  0.82809862  0.06405502    -0.11600
C621        C  0.12629700  0.81408572  0.06791452    -0.01400
C622        C  0.11079095  0.80928476  0.04863390    -0.10500
C623        C  0.14458413  0.83761880  0.99644225     0.05900
H624        H  0.16936335  0.84573640  0.03848119     0.07900
H625        H  0.15921836  0.83186854  0.07870444     0.11300
H626        H  0.09462108  0.79875743  0.05132198     0.11600
H627        H  0.10353669  0.81422089  0.01125921     0.07900
C628        C  0.13840093  0.82258090  0.97704615    -0.11200
C629        C  0.14615952  0.82782809  0.95382087    -0.10500
C630        C  0.16082895  0.84784833  0.94946715    -0.01400
C631        C  0.16698800  0.86306954  0.96860498    -0.11600
C632        C  0.15866357  0.85819573  0.99183393    -0.10000
H633        H  0.12822310  0.80623377  0.97980482     0.07900
H634        H  0.14146181  0.81562619  0.93937171     0.11600
H635        H  0.17819981  0.87871065  0.96558587     0.11300
H636        H  0.16341401  0.87049138  0.00614986     0.07900
C637        C  0.95872087  0.83184208  0.14328722    -0.11200
C638        C  0.97912137  0.83657802  0.15745675     0.05900
C639        C  0.97614843  0.84717660  0.18017502    -0.10000
C640        C  0.95319685  0.85228854  0.18886236    -0.11600
C641        C  0.93274812  0.84689186  0.17501217    -0.01400
C642        C  0.93572463  0.83697776  0.15197950    -0.10500
C643        C  0.00332981  0.82901686  0.14944915     0.05900
H644        H  0.99152842  0.85068822  0.19162647     0.07900
H645        H  0.95146236  0.85988231  0.20670841     0.11300
H646        H  0.92027635  0.83273014  0.14087646     0.11600
H647        H  0.96055484  0.82388518  0.12561250     0.07900
C648        C  0.00671924  0.80617498  0.13922838    -0.11200
C649        C  0.02984323  0.79783928  0.13419415    -0.10500
C650        C  0.05000931  0.81218280  0.13930853    -0.01400
C651        C  0.04656644  0.83542227  0.14856982    -0.11600
C652        C  0.02342655  0.84375953  0.15360165    -0.10000
H653        H  0.99157438  0.79433194  0.13609200     0.07900
H654        H  0.03195288  0.77984766  0.12703886     0.11600
H655        H  0.06177911  0.84693667  0.15250871     0.11300
H656        H  0.02125946  0.86157197  0.16117280     0.07900
C657        C  0.27444791  0.72363184  0.39973600    -0.11200
C658        C  0.25457186  0.73623877  0.39048607     0.05900
C659        C  0.25804088  0.75925646  0.38069593    -0.10000
C660        C  0.28102335  0.76933407  0.37979134    -0.11600
C661        C  0.30097476  0.75665645  0.38881821    -0.01400
C662        C  0.29743404  0.73379100  0.39901080    -0.10500
C663        C  0.23036902  0.72517333  0.39033097     0.05900
H664        H  0.24303440  0.76922298  0.37322321     0.07900
H665        H  0.28318689  0.78697817  0.37181069     0.11300
H666        H  0.31245736  0.72362911  0.40616841     0.11600
H667        H  0.27217092  0.70592683  0.40755324     0.07900
C668        C  0.22728380  0.70145684  0.38225373    -0.11200
C669        C  0.20432759  0.69133255  0.38100225    -0.10500
C670        C  0.18401675  0.70467144  0.38797700    -0.01400
C671        C  0.18716563  0.72826495  0.39646701    -0.11600
C672        C  0.21012561  0.73845633  0.39752583    -0.10000
H673        H  0.24259060  0.69094024  0.37637686     0.07900
H674        H  0.20247818  0.67310494  0.37439228     0.11600
H675        H  0.17186659  0.73894649  0.40204698     0.11300
H676        H  0.21209452  0.75671995  0.40400612     0.07900
C677        C  0.72819917  0.85506904  0.28917324    -0.11200
C678        C  0.73144687  0.86396800  0.26575492     0.05900
C679        C  0.71137366  0.87199883  0.25267251    -0.10000
C680        C  0.68838020  0.87063239  0.26256978    -0.11600
C681        C  0.68498945  0.86104669  0.28569877    -0.01400
C682        C  0.70513936  0.85352922  0.29903326    -0.10500
C683        C  0.75549820  0.86371647  0.25447300     0.05900
H684        H  0.71347520  0.87919387  0.23468614     0.07900
H685        H  0.67321386  0.87672333  0.25193197     0.11300
H686        H  0.70306144  0.84618685  0.31695945     0.11600
H687        H  0.74340183  0.84861554  0.29954364     0.07900
C688        C  0.77585531  0.87172073  0.26712163    -0.11200
C689        C  0.79860970  0.87067673  0.25651157    -0.10500
C690        C  0.80137668  0.86139012  0.23316655    -0.01400
C691        C  0.78095637  0.85359422  0.22049587    -0.11600
C692        C  0.75824422  0.85480533  0.23102069    -0.10000
H693        H  0.77413453  0.87882964  0.28517040     0.07900
H694        H  0.81404479  0.87685935  0.26667810     0.11600
H695        H  0.78253392  0.84634171  0.20249320     0.11300
H696        H  0.74285253  0.84825889  0.22101141     0.07900
C697        C  0.50806332  0.84523085  0.33128849    -0.11200
C698        C  0.50443683  0.83600083  0.35454538     0.05900
C699        C  0.52435898  0.83305561  0.36984900    -0.10000
C700        C  0.54751251  0.83848832  0.36182860    -0.11600
C701        C  0.55120597  0.84702158  0.33834694    -0.01400
C702        C  0.53122210  0.85071518  0.32327987    -0.10500
C703        C  0.48012801  0.82837914  0.36236710     0.05900
H704        H  0.52205627  0.82632714  0.38798336     0.07900
H705        H  0.56256274  0.83558602  0.37388074     0.11300
H706        H  0.53352711  0.85720105  0.30505337     0.11600
H707        H  0.49309781  0.84742813  0.31898782     0.07900
C708        C  0.45974859  0.84208457  0.35634987    -0.11200
C709        C  0.43675451  0.83405389  0.36247007    -0.10500
C710        C  0.43368304  0.81210372  0.37464479    -0.01400
C711        C  0.45408024  0.79868232  0.38116760    -0.11600
C712        C  0.47706912  0.80674553  0.37510916    -0.10000
H713        H  0.46158134  0.85895683  0.34677449     0.07900
H714        H  0.42135750  0.84477393  0.35717294     0.11600
H715        H  0.45226230  0.78165639  0.39047342     0.11300
H716        H  0.49240823  0.79563473  0.37971021     0.07900
C717        C  0.23273223  0.85379613  0.72593424    -0.11200
C718        C  0.24608409  0.86279381  0.74552051     0.05900
C719        C  0.26948061  0.87151886  0.74130664    -0.10000
C720        C  0.27954383  0.87046257  0.71834014    -0.11600
C721        C  0.26618026  0.86135080  0.69900457    -0.01400
C722        C  0.24258886  0.85339866  0.70284378    -0.10500
C723        C  0.23591517  0.86247271  0.77027631     0.05900
H724        H  0.28009188  0.87916120  0.75573564     0.07900
H725        H  0.29771394  0.87694833  0.71561447     0.11300
H726        H  0.23209109  0.84610105  0.68812305     0.11600
H727        H  0.21488270  0.84647480  0.72847046     0.07900
C728        C  0.21107278  0.86555280  0.77406964    -0.11200
C729        C  0.20145319  0.86419743  0.79721160    -0.10500
C730        C  0.21651493  0.86032086  0.81710870    -0.01400
C731        C  0.24133672  0.85776586  0.81353826    -0.11600
C732        C  0.25091658  0.85854685  0.79034897    -0.10000
H733        H  0.19900602  0.86914337  0.75919662     0.07900
H734        H  0.18224613  0.86646493  0.79959232     0.11600
H735        H  0.25326284  0.85452847  0.82863285     0.11300
H736        H  0.27002405  0.85554821  0.78817694     0.07900
C737        C  0.27137956  0.74618378  0.63403481    -0.11200
C738        C  0.24822451  0.74274166  0.62446337     0.05900
C739        C  0.23543080  0.76276604  0.61577078    -0.10000
C740        C  0.24541755  0.78580571  0.61701764    -0.11600
C741        C  0.26835591  0.78928961  0.62708916    -0.01400
C742        C  0.28131665  0.76921546  0.63538170    -0.10500
C743        C  0.23713978  0.71847366  0.62447747     0.05900
H744        H  0.21766713  0.76060140  0.60803678     0.07900
H745        H  0.23504528  0.80091979  0.61037772     0.11300
H746        H  0.29905520  0.77132313  0.64319149     0.11600
H747        H  0.28155689  0.73113664  0.64111061     0.07900
C748        C  0.25075758  0.69806336  0.61840216    -0.11200
C749        C  0.24057950  0.67510687  0.61960750    -0.10500
C750        C  0.21662605  0.67208862  0.62707504    -0.01400
C751        C  0.20291616  0.69251522  0.63282541    -0.11600
C752        C  0.21304281  0.71546925  0.63146694    -0.10000
H753        H  0.26929528  0.69986443  0.61271107     0.07900
H754        H  0.25157089  0.65969943  0.61500193     0.11600
H755        H  0.18439295  0.69075605  0.63857658     0.11300
H756        H  0.20219377  0.73083595  0.63651493     0.07900
C757        C  0.34569326  0.82095721  0.54033213    -0.11200
C758        C  0.34104490  0.83684728  0.52111784     0.05900
C759        C  0.32867935  0.85844285  0.52603946    -0.10000
C760        C  0.32038070  0.86346559  0.54924770    -0.11600
C761        C  0.32492494  0.84739172  0.56816275    -0.01400
C762        C  0.33802730  0.82634734  0.56360126    -0.10500
C763        C  0.34800977  0.83024668  0.49602440     0.05900
H764        H  0.32521455  0.87145883  0.51197663     0.07900
H765        H  0.31041647  0.87990594  0.55242823     0.11300
H766        H  0.34144918  0.81350843  0.57787645     0.11600
H767        H  0.35453753  0.80387891  0.53739070     0.07900
C768        C  0.36801837  0.81530382  0.49163105    -0.11200
C769        C  0.37302162  0.80706429  0.46843003    -0.10500
C770        C  0.35859127  0.81412008  0.44894608    -0.01400
C771        C  0.33937751  0.82997754  0.45297925    -0.11600
C772        C  0.33396159  0.83772617  0.47626100    -0.10000
H773        H  0.37976395  0.80969487  0.50612555     0.07900
H774        H  0.38812187  0.79504390  0.46574065     0.11600
H775        H  0.32785596  0.83555341  0.43825962     0.11300
H776        H  0.31817115  0.84882086  0.47875361     0.07900
C777        C  0.22681717  0.08866959  0.78646879    -0.11200
C778        C  0.23144619  0.09717195  0.76306352     0.05900
C779        C  0.21211528  0.10645458  0.74946489    -0.10000
C780        C  0.18891762  0.10728896  0.75902069    -0.11600
C781        C  0.18468134  0.09959117  0.78260501    -0.01400
C782        C  0.20373227  0.09021356  0.79625511    -0.10500
C783        C  0.25632693  0.09707138  0.75307510     0.05900
H784        H  0.21491130  0.11371857  0.73163589     0.07900
H785        H  0.17443930  0.11478060  0.74829700     0.11300
H786        H  0.20069268  0.08390613  0.81443756     0.11600
H787        H  0.24098737  0.08083096  0.79730727     0.07900
C788        C  0.27648246  0.10025071  0.76817381    -0.11200
C789        C  0.29969360  0.10128289  0.75856061    -0.10500
C790        C  0.30317801  0.09974283  0.73364135    -0.01400
C791        C  0.28323420  0.09628204  0.71856599    -0.11600
C792        C  0.26013200  0.09462316  0.72817887    -0.10000
H793        H  0.27437436  0.10264068  0.78735948     0.07900
H794        H  0.31483657  0.10406065  0.77053281     0.11600
H795        H  0.28552957  0.09467905  0.69929170     0.11300
H796        H  0.24527653  0.09142742  0.71599298     0.07900
C797        C  0.34282942  0.01329739  0.64725038    -0.11200
C798        C  0.34815362  0.99308039  0.66150621     0.05900
C799        C  0.36029126  0.99640863  0.68345182    -0.10000
C800        C  0.36623865  0.01948813  0.69133699    -0.11600
C801        C  0.36015105  0.03972691  0.67746086    -0.01400
C802        C  0.34875778  0.03638928  0.65515100    -0.10500
C803        C  0.34000092  0.96875405  0.65416110     0.05900
H804        H  0.36440622  0.98124652  0.69498562     0.07900
H805        H  0.37501342  0.02150677  0.70862423     0.11300
H806        H  0.34390889  0.05165396  0.64403670     0.11600
H807        H  0.33384036  0.01128065  0.63007787     0.07900
C808        C  0.31714748  0.96555947  0.64376995    -0.11200
C809        C  0.30877691  0.94255889  0.63816726    -0.10500
C810        C  0.32305242  0.92224120  0.64287772    -0.01400
C811        C  0.34608536  0.92542903  0.65283527    -0.11600
C812        C  0.35447915  0.94844793  0.65840485    -0.10000
H813        H  0.30539427  0.98078654  0.64064011     0.07900
H814        H  0.29089988  0.94066420  0.63062575     0.11600
H815        H  0.35750451  0.91010257  0.65666970     0.11300
H816        H  0.37227683  0.95034454  0.66612310     0.07900
C817        C  0.73395034  0.26210349  0.38431594    -0.11200
C818        C  0.74841145  0.24229347  0.39075080     0.05900
C819        C  0.77264543  0.24640813  0.39691948    -0.10000
C820        C  0.78233914  0.26955314  0.39581962    -0.11600
C821        C  0.76784095  0.28912263  0.38922495    -0.01400
C822        C  0.74350821  0.28531020  0.38387538    -0.10500
C823        C  0.73844401  0.21744904  0.39020992     0.05900
H824        H  0.78420079  0.23176981  0.40255226     0.07900
H825        H  0.80113662  0.27220444  0.40026593     0.11300
H826        H  0.73208908  0.30018460  0.37850841     0.11600
H827        H  0.71539228  0.25969159  0.37894013     0.07900
C828        C  0.71406253  0.21319212  0.39554698    -0.11200
C829        C  0.70439595  0.19010772  0.39359225    -0.10500
C830        C  0.71903464  0.17069292  0.38694120    -0.01400
C831        C  0.74347911  0.17463104  0.38228387    -0.11600
C832        C  0.75303696  0.19782087  0.38358946    -0.10000
H833        H  0.70238247  0.22766026  0.40129392     0.07900
H834        H  0.68552584  0.18735608  0.39758630     0.11600
H835        H  0.75503299  0.15987129  0.37696106     0.11300
H836        H  0.77172934  0.20037348  0.37883529     0.07900
C837        C  0.71316469  0.10354888  0.27151407    -0.11200
C838        C  0.73663060  0.09490512  0.26789978     0.05900
C839        C  0.75010750  0.08714742  0.28786333    -0.10000
C840        C  0.74050048  0.08847917  0.31102767    -0.11600
C841        C  0.71727026  0.09772096  0.31469654    -0.01400
C842        C  0.70360319  0.10500186  0.29468254    -0.10500
C843        C  0.74739770  0.09506637  0.24353281     0.05900
H844        H  0.76813741  0.08013478  0.28555212     0.07900
H845        H  0.75140568  0.08260664  0.32609078     0.11300
H846        H  0.68560894  0.11212281  0.29694042     0.11600
H847        H  0.70245960  0.10986783  0.25648871     0.07900
C848        C  0.73395533  0.08782424  0.22336753    -0.11200
C849        C  0.74389659  0.08907389  0.20031332    -0.10500
C850        C  0.76739886  0.09776272  0.19699323    -0.01400
C851        C  0.78090607  0.10472270  0.21719467    -0.11600
C852        C  0.77103326  0.10333404  0.24021234    -0.10000
H853        H  0.71576407  0.08117700  0.22544688     0.07900
H854        H  0.73308328  0.08352480  0.18507714     0.11600
H855        H  0.79907245  0.11146514  0.21521269     0.11300
H856        H  0.78170089  0.10932201  0.25538451     0.07900
C857        C  0.63981487  0.01110329  0.34917007    -0.11200
C858        C  0.64606945  0.99171250  0.36422690     0.05900
C859        C  0.66031200  0.99634164  0.38471478    -0.10000
C860        C  0.66877524  0.01955366  0.38944321    -0.11600
C861        C  0.66257475  0.03867895  0.37418797    -0.01400
C862        C  0.64770817  0.03432876  0.35428515    -0.10500
C863        C  0.63882402  0.96673971  0.35773409     0.05900
H864        H  0.66509478  0.98205182  0.39705654     0.07900
H865        H  0.68012896  0.02256812  0.40500398     0.11300
H866        H  0.64296348  0.04877383  0.34206910     0.11600
H867        H  0.62948485  0.00834001  0.33289982     0.07900
C868        C  0.61743139  0.96236464  0.34479863    -0.11200
C869        C  0.61200507  0.93930520  0.33643228    -0.10500
C870        C  0.62741539  0.92001537  0.34153262    -0.01400
C871        C  0.64813342  0.92400513  0.35538497    -0.11600
C872        C  0.65395666  0.94714762  0.36313908    -0.10000
H873        H  0.60494396  0.97677879  0.34084346     0.07900
H874        H  0.59580166  0.93654232  0.32594075     0.11600
H875        H  0.66042558  0.90937769  0.35930016     0.11300
H876        H  0.67080388  0.94971011  0.37256504     0.07900
C877        C  0.72550213  0.20135617  0.61538641    -0.11200
C878        C  0.72965614  0.22532065  0.62242792     0.05900
C879        C  0.70997987  0.23916689  0.63045298    -0.10000
C880        C  0.68690207  0.22927654  0.63149156    -0.11600
C881        C  0.68315735  0.20516820  0.62525015    -0.01400
C882        C  0.70257398  0.19130033  0.61715018    -0.10500
C883        C  0.75442641  0.23558972  0.62209350     0.05900
H884        H  0.71239898  0.25747511  0.63656492     0.07900
H885        H  0.67213624  0.24020503  0.63798226     0.11300
H886        H  0.69994567  0.17270300  0.61196088     0.11600
H887        H  0.73991802  0.19027159  0.60847809     0.07900
C888        C  0.77465782  0.22086210  0.62633749    -0.11200
C889        C  0.79777764  0.23068869  0.62704058    -0.10500
C890        C  0.80109908  0.25550633  0.62417814    -0.01400
C891        C  0.78111042  0.27022683  0.61962080    -0.11600
C892        C  0.75807631  0.26035144  0.61825479    -0.10000
H893        H  0.77268899  0.20182831  0.62987025     0.07900
H894        H  0.81295568  0.21902183  0.63075397     0.11600
H895        H  0.78331323  0.28942013  0.61705859     0.11300
H896        H  0.74316718  0.27222010  0.61423794     0.07900
C897        C  0.52563569  0.12352202  0.66670093    -0.11200
C898        C  0.50649676  0.12779448  0.65060776     0.05900
C899        C  0.51146895  0.13964013  0.62875007    -0.10000
C900        C  0.53458222  0.14822945  0.62384324    -0.11600
C901        C  0.55332778  0.14443017  0.64030071    -0.01400
C902        C  0.54883578  0.13145489  0.66142488    -0.10500
C903        C  0.48134735  0.12153168  0.65750525     0.05900
H904        H  0.49745457  0.14268828  0.61556133     0.07900
H905        H  0.53779439  0.15796857  0.60727641     0.11300
H906        H  0.56304505  0.12850567  0.67446744     0.11600
H907        H  0.52263740  0.11498546  0.68392400     0.07900
C908        C  0.47662801  0.10211827  0.67310355    -0.11200
C909        C  0.45347877  0.09820942  0.68202079    -0.10500
C910        C  0.43439927  0.11315616  0.67498618    -0.01400
C911        C  0.43869266  0.13168547  0.65841156    -0.11600
C912        C  0.46193656  0.13601983  0.64998094    -0.10000
H913        H  0.49085793  0.09008110  0.67876930     0.07900
H914        H  0.45051176  0.08355761  0.69452094     0.11600
H915        H  0.42425040  0.14351967  0.65276995     0.11300
H916        H  0.46472871  0.15139377  0.63838198     0.07900
C917        C  0.64372093  0.11880773  0.53854388    -0.11200
C918        C  0.63954371  0.13370382  0.51857192     0.05900
C919        C  0.62830491  0.15608382  0.52198619    -0.10000
C920        C  0.62205699  0.16373428  0.54506041    -0.11600
C921        C  0.62688455  0.14910353  0.56511437    -0.01400
C922        C  0.63741012  0.12640868  0.56158902    -0.10500
C923        C  0.64774204  0.12632900  0.49438321     0.05900
H924        H  0.62508285  0.16800910  0.50690561     0.07900
H925        H  0.61403458  0.18135440  0.54724783     0.11300
H926        H  0.64129886  0.11472852  0.57670219     0.11600
H927        H  0.65206630  0.10134067  0.53634215     0.07900
C928        C  0.67068475  0.11617411  0.49128664    -0.11200
C929        C  0.67893039  0.11021435  0.46834932    -0.10500
C930        C  0.66436161  0.11426050  0.44808397    -0.01400
C931        C  0.64123593  0.12398225  0.45124599    -0.11600
C932        C  0.63302900  0.13000972  0.47417242    -0.10000
H933        H  0.68250939  0.11344271  0.50655017     0.07900
H934        H  0.69688746  0.10289229  0.46644890     0.11600
H935        H  0.62960361  0.12731193  0.43595464     0.11300
H936        H  0.61518471  0.13759164  0.47611061     0.07900
C937        C  0.37868938  0.70006240  0.24219550    -0.11200
C938        C  0.37645760  0.72496930  0.24641527     0.05900
C939        C  0.37308025  0.74027255  0.22643173    -0.10000
C940        C  0.37199726  0.73100732  0.20310275    -0.11600
C941        C  0.37349236  0.70616637  0.19917947    -0.01400
C942        C  0.37684782  0.69076898  0.21890406    -0.10500
C943        C  0.37685883  0.73491024  0.27143642     0.05900
H944        H  0.37060414  0.75942765  0.22867820     0.07900
H945        H  0.36921624  0.74323373  0.18817202     0.11300
H946        H  0.37834116  0.67151752  0.21627762     0.11600
H947        H  0.38195843  0.68761649  0.25679407     0.07900
C948        C  0.36908505  0.72097157  0.29117403    -0.11200
C949        C  0.36828689  0.73075621  0.31433114    -0.10500
C950        C  0.37445928  0.75488368  0.31816648    -0.01400
C951        C  0.38253844  0.76877853  0.29877553    -0.11600
C952        C  0.38417505  0.75880288  0.27578526    -0.10000
H953        H  0.36284424  0.70271080  0.28879033     0.07900
H954        H  0.36190733  0.71975117  0.32908775     0.11600
H955        H  0.38778064  0.78735452  0.30146130     0.11300
H956        H  0.39112171  0.76998232  0.26147474     0.07900
C957        C  0.25739712  0.70305153  0.13293790    -0.11200
C958        C  0.25391322  0.72638638  0.12389158     0.05900
C959        C  0.27390478  0.73959862  0.11592484    -0.10000
C960        C  0.29699708  0.72974940  0.11727996    -0.11600
C961        C  0.30053342  0.70655855  0.12675188    -0.01400
C962        C  0.28048143  0.69324763  0.13440683    -0.10500
C963        C  0.22960028  0.73722786  0.12382762     0.05900
H964        H  0.27165302  0.75755101  0.10868342     0.07900
H965        H  0.31210039  0.74039235  0.11111798     0.11300
H966        H  0.28264366  0.67534122  0.14178031     0.11600
H967        H  0.24230866  0.69261129  0.13947373     0.07900
C968        C  0.20954904  0.72381552  0.11629042    -0.11200
C969        C  0.18642916  0.73356101  0.11776824    -0.10500
C970        C  0.18293984  0.75681958  0.12699486    -0.01400
C971        C  0.20305412  0.77040133  0.13404857    -0.11600
C972        C  0.22616513  0.76072318  0.13240262    -0.10000
H973        H  0.21177374  0.70575379  0.10935901     0.07900
H974        H  0.17126850  0.72275087  0.11201675     0.11600
H975        H  0.20092507  0.78843310  0.14108344     0.11300
H976        H  0.24130679  0.77136176  0.13851671     0.07900
C977        C  0.71222409  0.24563667  0.11927108    -0.11200
C978        C  0.73648802  0.24165577  0.12542667     0.05900
C979        C  0.75059990  0.26147141  0.13255744    -0.10000
C980        C  0.74070960  0.28457080  0.13345735    -0.11600
C981        C  0.71638010  0.28822237  0.12790020    -0.01400
C982        C  0.70220780  0.26861042  0.12084799    -0.10500
C983        C  0.74684109  0.21692953  0.12491448     0.05900
H984        H  0.76916850  0.25914683  0.13795493     0.07900
H985        H  0.75188424  0.29947996  0.13916726     0.11300
H986        H  0.68343003  0.27113088  0.11622360     0.11600
H987        H  0.70090933  0.23105175  0.11310508     0.07900
C988        C  0.73244435  0.19679609  0.13034858    -0.11200
C989        C  0.74222635  0.17365751  0.13036211    -0.10500
C990        C  0.76672566  0.17020458  0.12560693    -0.01400
C991        C  0.78119016  0.19011613  0.12013266    -0.11600
C992        C  0.77129384  0.21320757  0.11945952    -0.10000
H993        H  0.71371247  0.19886998  0.13518372     0.07900
H994        H  0.73081356  0.15852805  0.13488545     0.11600
H995        H  0.80012586  0.18777734  0.11617594     0.11300
H996        H  0.78284792  0.22809266  0.11460424     0.07900
C997        C  0.74890973  0.37074052  0.22525663    -0.11200
C998        C  0.73640626  0.36209523  0.24543003     0.05900
C999        C  0.71321575  0.35252269  0.24228723    -0.10000
C1000       C  0.70278721  0.35147239  0.21947032    -0.11600
C1001       C  0.71532280  0.35998474  0.19929583    -0.01400
C1002       C  0.73845264  0.36972289  0.20241042    -0.10500
C1003       C  0.74759285  0.36249552  0.26964381     0.05900
H1004       H  0.70329794  0.34535886  0.25743083     0.07900
H1005       H  0.68498463  0.34378055  0.21761117     0.11300
H1006       H  0.74855947  0.37640094  0.18716734     0.11600
H1007       H  0.76671306  0.37841570  0.22716316     0.07900
C1008       C  0.77190081  0.35621936  0.27275150    -0.11200
C1009       C  0.78195737  0.35507966  0.29577114    -0.10500
C1010       C  0.76793113  0.36032919  0.31609497    -0.01400
C1011       C  0.74384203  0.36727000  0.31294333    -0.11600
C1012       C  0.73376518  0.36829603  0.28996230    -0.10000
H1013       H  0.78295980  0.35149492  0.25744973     0.07900
H1014       H  0.80064058  0.34986334  0.29767401     0.11600
H1015       H  0.73264511  0.37155437  0.32827841     0.11300
H1016       H  0.71510145  0.37358101  0.28808645     0.07900
C1017       C  0.72808696  0.60818198  0.22675964    -0.11200
C1018       C  0.73171729  0.59908995  0.25007537     0.05900
C1019       C  0.71180184  0.59036296  0.26297937    -0.10000
C1020       C  0.68874539  0.59099768  0.25289527    -0.11600
C1021       C  0.68511020  0.60040910  0.22971314    -0.01400
C1022       C  0.70504677  0.60885545  0.21670189    -0.10500
C1023       C  0.75608336  0.59932505  0.26109431     0.05900
H1024       H  0.71406018  0.58296590  0.28086132     0.07900
H1025       H  0.67373721  0.58432459  0.26335216     0.11300
H1026       H  0.70282157  0.61624950  0.19881152     0.11600
H1027       H  0.74299381  0.61532961  0.21647826     0.07900
C1028       C  0.77654174  0.59368574  0.24735214    -0.11200
C1029       C  0.79950976  0.59461042  0.25761234    -0.10500
C1030       C  0.80250193  0.60129766  0.28179304    -0.01400
C1031       C  0.78206145  0.60677105  0.29557019    -0.11600
C1032       C  0.75911287  0.60575362  0.28534943    -0.10000
H1033       H  0.77477478  0.58839962  0.22869563     0.07900
H1034       H  0.81493282  0.59024843  0.24655996     0.11600
H1035       H  0.78379428  0.61194344  0.31426457     0.11300
H1036       H  0.74375827  0.61050732  0.29632878     0.07900
C1037       C  0.60258947  0.71396469  0.22780492    -0.11200
C1038       C  0.61091391  0.71813618  0.25138802     0.05900
C1039       C  0.62021416  0.69856817  0.26459667    -0.10000
C1040       C  0.62100107  0.67554326  0.25458963    -0.11600
C1041       C  0.61320492  0.67169041  0.23093952    -0.01400
C1042       C  0.60407189  0.69104266  0.21757428    -0.10500
C1043       C  0.61044720  0.74277675  0.26200826     0.05900
H1044       H  0.62737808  0.70103281  0.28252743     0.07900
H1045       H  0.62835678  0.66084340  0.26509469     0.11300
H1046       H  0.59773753  0.68833144  0.19933952     0.11600
H1047       H  0.59480018  0.72834257  0.21721971     0.07900
C1048       C  0.61360401  0.76328299  0.24743499    -0.11200
C1049       C  0.61411321  0.78629039  0.25756022    -0.10500
C1050       C  0.61203337  0.78927695  0.28250936    -0.01400
C1051       C  0.60860682  0.76897119  0.29709498    -0.11600
C1052       C  0.60751709  0.74602537  0.28694808    -0.10000
H1053       H  0.61636588  0.76161348  0.22825559     0.07900
H1054       H  0.61691903  0.80169144  0.24595131     0.11600
H1055       H  0.60664428  0.77085107  0.31638145     0.11300
H1056       H  0.60436719  0.73085760  0.29873506     0.07900
C1057       C  0.47732650  0.65875291  0.14155691    -0.11200
C1058       C  0.48078592  0.63580344  0.15164513     0.05900
C1059       C  0.46066846  0.62096957  0.15538193    -0.10000
C1060       C  0.43755404  0.62914295  0.14979039    -0.11600
C1061       C  0.43405776  0.65232415  0.14032113    -0.01400
C1062       C  0.45420711  0.66691885  0.13593494    -0.10500
C1063       C  0.50515534  0.62782239  0.15919808     0.05900
H1064       H  0.46278892  0.60307385  0.16279604     0.07900
H1065       H  0.42237949  0.61745097  0.15330298     0.11300
H1066       H  0.45207398  0.68491005  0.12875146     0.11600
H1067       H  0.49242017  0.67073010  0.13874307     0.07900
C1068       C  0.52541887  0.63317514  0.14509563    -0.11200
C1069       C  0.54847914  0.62691987  0.15298390    -0.10500
C1070       C  0.55177205  0.61524671  0.17518136    -0.01400
C1071       C  0.53148509  0.60937643  0.18901406    -0.11600
C1072       C  0.50842836  0.61557681  0.18110024    -0.10000
H1073       H  0.52345116  0.64232516  0.12800380     0.07900
H1074       H  0.56376977  0.63170774  0.14192822     0.11600
H1075       H  0.53345208  0.60046393  0.20623326     0.11300
H1076       H  0.49321750  0.61147172  0.19252790     0.07900
C1077       C  0.65611931  0.46213624  0.13053190    -0.11200
C1078       C  0.64204474  0.46700689  0.15103945     0.05900
C1079       C  0.63520305  0.44754404  0.16577200    -0.10000
C1080       C  0.64275495  0.42413444  0.16054094    -0.11600
C1081       C  0.65780846  0.41965216  0.14081437    -0.01400
C1082       C  0.66420551  0.43880386  0.12570477    -0.10500
C1083       C  0.63578621  0.49229099  0.15782370     0.05900
H1084       H  0.62480359  0.45038166  0.18194862     0.07900
H1085       H  0.63771564  0.40967868  0.17259587     0.11300
H1086       H  0.67559110  0.43574891  0.11021134     0.11600
H1087       H  0.66120028  0.47636658  0.11827341     0.07900
C1088       C  0.65144844  0.51138985  0.15213732    -0.11200
C1089       C  0.64651397  0.53482161  0.15973468    -0.10500
C1090       C  0.62616465  0.53970238  0.17376850    -0.01400
C1091       C  0.61028237  0.52089819  0.17929425    -0.11600
C1092       C  0.61483329  0.49752352  0.17110903    -0.10000
H1093       H  0.66805337  0.50824004  0.14252286     0.07900
H1094       H  0.65919521  0.54898608  0.15548258     0.11600
H1095       H  0.59434232  0.52428866  0.18995137     0.11300
H1096       H  0.60196663  0.48357558  0.17539438     0.07900
C1097       C  0.22480654  0.36826127  0.72943811    -0.11200
C1098       C  0.22914486  0.36041092  0.75316524     0.05900
C1099       C  0.20944448  0.35235188  0.76695043    -0.10000
C1100       C  0.18616795  0.35248640  0.75742452    -0.11600
C1101       C  0.18217442  0.35987045  0.73367136    -0.01400
C1102       C  0.20163632  0.36758863  0.71968962    -0.10500
C1103       C  0.25400986  0.36049080  0.76342982     0.05900
H1104       H  0.21192376  0.34549711  0.78499300     0.07900
H1105       H  0.17137102  0.34611570  0.76837066     0.11300
H1106       H  0.19883367  0.37349339  0.70132129     0.11600
H1107       H  0.23920091  0.37517418  0.71835311     0.07900
C1108       C  0.27429462  0.35749148  0.74852548    -0.11200
C1109       C  0.29751650  0.35745155  0.75823725    -0.10500
C1110       C  0.30096865  0.35969998  0.78311772    -0.01400
C1111       C  0.28089997  0.36262583  0.79806558    -0.11600
C1112       C  0.25774128  0.36337822  0.78833011    -0.10000
H1113       H  0.27235093  0.35465227  0.72938182     0.07900
H1114       H  0.31274269  0.35495565  0.74636158     0.11600
H1115       H  0.28314243  0.36465135  0.81731552     0.11300
H1116       H  0.24284019  0.36644401  0.80042547     0.07900
C1117       C  0.36716155  0.24587547  0.78836632    -0.11200
C1118       C  0.37622154  0.24249817  0.76504160     0.05900
C1119       C  0.38455396  0.26248540  0.75204975    -0.10000
C1120       C  0.38339913  0.28548263  0.76197820    -0.11600
C1121       C  0.37384093  0.28893943  0.78508420    -0.01400
C1122       C  0.36595097  0.26890223  0.79828970    -0.10500
C1123       C  0.37619932  0.21833207  0.75394873     0.05900
H1124       H  0.39193023  0.26032210  0.73416460     0.07900
H1125       H  0.38973532  0.30058365  0.75143141     0.11300
H1126       H  0.35852103  0.27104555  0.81615462     0.11600
H1127       H  0.36040730  0.23079423  0.79867645     0.07900
C1128       C  0.38310986  0.19801181  0.76730070    -0.11200
C1129       C  0.38240893  0.17516402  0.75690932    -0.10500
C1130       C  0.37462341  0.17222452  0.73303255    -0.01400
C1131       C  0.36789280  0.19256968  0.71964401    -0.11600
C1132       C  0.36872335  0.21540399  0.72998457    -0.10000
H1133       H  0.38914917  0.19981412  0.78574221     0.07900
H1134       H  0.38768164  0.15978086  0.76766002     0.11600
H1135       H  0.36179543  0.19083478  0.70121510     0.11300
H1136       H  0.36300245  0.23073500  0.71938800     0.07900
C1137       C  0.23601284  0.69890854  0.89999970    -0.11200
C1138       C  0.24890999  0.71914799  0.89215174     0.05900
C1139       C  0.27241975  0.71612047  0.88340788    -0.10000
C1140       C  0.28264001  0.69322007  0.88205749    -0.11600
C1141       C  0.26954105  0.67293363  0.88945564    -0.01400
C1142       C  0.24623173  0.67602573  0.89867802    -0.10500
C1143       C  0.23756970  0.74322616  0.89223277     0.05900
H1144       H  0.28266937  0.73138874  0.87699163     0.07900
H1145       H  0.30064896  0.69137134  0.87488702     0.11300
H1146       H  0.23575967  0.66072592  0.90464714     0.11600
H1147       H  0.21798792  0.70078104  0.90712393     0.07900
C1148       C  0.21364237  0.74608581  0.88454429    -0.11200
C1149       C  0.20326974  0.76891920  0.88340397    -0.10500
C1150       C  0.21660864  0.78931199  0.89001271    -0.01400
C1151       C  0.24036484  0.78641578  0.89819148    -0.11600
C1152       C  0.25076868  0.76358877  0.89923417    -0.10000
H1153       H  0.20314028  0.73072247  0.87878819     0.07900
H1154       H  0.18490898  0.77062591  0.87707324     0.11600
H1155       H  0.25105074  0.80182798  0.90346422     0.11300
H1156       H  0.26914663  0.76185128  0.90550390     0.07900
C1157       C  0.23636249  0.59045645  0.78947657    -0.11200
C1158       C  0.24920598  0.59931194  0.76961828     0.05900
C1159       C  0.27218362  0.60914793  0.77321381    -0.10000
C1160       C  0.28200398  0.61042307  0.79629657    -0.11600
C1161       C  0.26904966  0.60182484  0.81620979    -0.01400
C1162       C  0.24620139  0.59167611  0.81256175    -0.10500
C1163       C  0.23829818  0.59911347  0.74534783     0.05900
H1164       H  0.28232082  0.61636174  0.75823740     0.07900
H1165       H  0.29964886  0.61836776  0.79856615     0.11300
H1166       H  0.23587362  0.58477259  0.82755151     0.11600
H1167       H  0.21870643  0.58255811  0.78712159     0.07900
C1168       C  0.25184476  0.59228488  0.72515902    -0.11200
C1169       C  0.24159241  0.59286135  0.70219001    -0.10500
C1170       C  0.21766748  0.60040998  0.69904085    -0.01400
C1171       C  0.20412570  0.60707298  0.71928427    -0.11600
C1172       C  0.21432322  0.60639011  0.74219406    -0.10000
H1173       H  0.27032706  0.58642731  0.72717184     0.07900
H1174       H  0.25243913  0.58761328  0.68690771     0.11600
H1175       H  0.18566829  0.61305282  0.71742349     0.11300
H1176       H  0.20360111  0.61205913  0.75741912     0.07900
C1177       C  0.31981755  0.61284286  0.99236208    -0.11200
C1178       C  0.34154541  0.62540165  0.99545659     0.05900
C1179       C  0.35547618  0.63097161  0.97516377    -0.10000
C1180       C  0.34736335  0.62501960  0.95215690    -0.11600
C1181       C  0.32510016  0.61346965  0.94898940    -0.01400
C1182       C  0.31165034  0.60696193  0.96933615    -0.10500
C1183       C  0.34883184  0.63398463  0.01960557     0.05900
H1184       H  0.37246422  0.64031870  0.97707435     0.07900
H1185       H  0.35819296  0.63014244  0.93681489     0.11300
H1186       H  0.29444169  0.59802545  0.96744184     0.11600
H1187       H  0.30862085  0.60848036  0.00767469     0.07900
C1188       C  0.35741143  0.65757276  0.02266943    -0.11200
C1189       C  0.36262018  0.66636921  0.04561970    -0.10500
C1190       C  0.35930764  0.65175932  0.06595676    -0.01400
C1191       C  0.35128211  0.62798802  0.06283739    -0.11600
C1192       C  0.34610184  0.61918809  0.03988950    -0.10000
H1193       H  0.35934403  0.66949556  0.00738315     0.07900
H1194       H  0.36862688  0.68480624  0.04748314     0.11600
H1195       H  0.34866464  0.61626919  0.07817885     0.11300
H1196       H  0.33976885  0.60086377  0.03801107     0.07900
C1197       C  0.35371455  0.51342418  0.85634995    -0.11200
C1198       C  0.33938171  0.49334080  0.86171025     0.05900
C1199       C  0.31742641  0.49671357  0.87370886    -0.10000
C1200       C  0.30959941  0.51982361  0.87956602    -0.11600
C1201       C  0.32361961  0.53996897  0.87357286    -0.01400
C1202       C  0.34592373  0.53653112  0.86225981    -0.10500
C1203       C  0.34672077  0.46905715  0.85378719     0.05900
H1204       H  0.30591896  0.48154595  0.87782098     0.07900
H1205       H  0.29229706  0.52193988  0.88824126     0.11300
H1206       H  0.35712923  0.55172956  0.85748525     0.11600
H1207       H  0.37085291  0.51125440  0.84737158     0.07900
C1208       C  0.35582074  0.46554456  0.83050194    -0.11200
C1209       C  0.36147388  0.44247123  0.82243874    -0.10500
C1210       C  0.35811243  0.42248265  0.83751685    -0.01400
C1211       C  0.34946393  0.42604880  0.86097175    -0.11600
C1212       C  0.34380300  0.44913070  0.86902752    -0.10000
H1213       H  0.35790543  0.48057326  0.81827413     0.07900
H1214       H  0.36794632  0.44023953  0.80421611     0.11600
H1215       H  0.34673449  0.41096351  0.87299748     0.11300
H1216       H  0.33703817  0.45140596  0.88713808     0.07900
C1217       C  0.72798618  0.25926518  0.87941236    -0.11200
C1218       C  0.73205257  0.23698537  0.89065193     0.05900
C1219       C  0.71249434  0.22467220  0.90085493    -0.10000
C1220       C  0.68926416  0.23418221  0.89942395    -0.11600
C1221       C  0.68510366  0.25620846  0.88774824    -0.01400
C1222       C  0.70473932  0.26877847  0.87796118    -0.10500
C1223       C  0.75641668  0.22611269  0.89084380     0.05900
H1224       H  0.71517725  0.20762078  0.90990643     0.07900
H1225       H  0.67453570  0.22419611  0.90732803     0.11300
H1226       H  0.70209982  0.28580151  0.86884242     0.11600
H1227       H  0.74268803  0.26902097  0.87117569     0.07900
C1228       C  0.75939079  0.20163893  0.88533602    -0.11200
C1229       C  0.78232300  0.19143513  0.88449384    -0.10500
C1230       C  0.80279651  0.20545311  0.88926178    -0.01400
C1231       C  0.79983682  0.22985087  0.89520174    -0.11600
C1232       C  0.77685983  0.24011341  0.89587596    -0.10000
H1233       H  0.74398410  0.19049321  0.88109247     0.07900
H1234       H  0.78402197  0.17259698  0.87984674     0.11600
H1235       H  0.81529094  0.24109699  0.89897471     0.11300
H1236       H  0.77505474  0.25897865  0.90037498     0.07900
C1237       C  0.60643686  0.21937972  0.78978343    -0.11200
C1238       C  0.61121398  0.23328202  0.76925367     0.05900
C1239       C  0.61666484  0.25780902  0.77197246    -0.10000
C1240       C  0.61768037  0.26816214  0.79482981    -0.11600
C1241       C  0.61309710  0.25420275  0.81537416    -0.01400
C1242       C  0.60729119  0.22975576  0.81261433    -0.10500
C1243       C  0.61111558  0.22212183  0.74510691     0.05900
H1244       H  0.62066929  0.26886469  0.75643910     0.07900
H1245       H  0.62218693  0.28704338  0.79642210     0.11300
H1246       H  0.60363882  0.21855127  0.82812912     0.11600
H1247       H  0.60194964  0.20049449  0.78815760     0.07900
C1248       C  0.62226742  0.19975776  0.74136369    -0.11200
C1249       C  0.62310453  0.18968559  0.71838680    -0.10500
C1250       C  0.61272938  0.20176018  0.69873267    -0.01400
C1251       C  0.60117763  0.22390898  0.70256873    -0.11600
C1252       C  0.60041801  0.23401301  0.72553020    -0.10000
H1253       H  0.63086295  0.19033092  0.75611471     0.07900
H1254       H  0.63214888  0.17260203  0.71596910     0.11600
H1255       H  0.59292943  0.23357734  0.68777692     0.11300
H1256       H  0.59144775  0.25112912  0.72800279     0.07900
C1257       C  0.62568163  0.30221929  0.99158489    -0.11200
C1258       C  0.63692428  0.32451813  0.99538874     0.05900
C1259       C  0.64175495  0.33937352  0.97550675    -0.10000
C1260       C  0.63612118  0.33177999  0.95223238    -0.11600
C1261       C  0.62554171  0.30917647  0.94839368    -0.01400
C1262       C  0.62003765  0.29463072  0.96832584    -0.10500
C1263       C  0.64459723  0.33174594  0.01987580     0.05900
H1264       H  0.65010460  0.35680030  0.97794767     0.07900
H1265       H  0.64051585  0.34339144  0.93722343     0.11300
H1266       H  0.61196810  0.27706527  0.96592520     0.11600
H1267       H  0.62199805  0.29026776  0.00652004     0.07900
C1268       C  0.62978601  0.32742415  0.03988130    -0.11200
C1269       C  0.63759639  0.33337887  0.06303604    -0.10500
C1270       C  0.66038005  0.34372963  0.06660791    -0.01400
C1271       C  0.67505132  0.34828058  0.04657034    -0.11600
C1272       C  0.66725103  0.34234820  0.02346825    -0.10000
H1273       H  0.61216136  0.31943790  0.03761543     0.07900
H1274       H  0.62593832  0.32957859  0.07815284     0.11600
H1275       H  0.69279429  0.35602922  0.04876073     0.11300
H1276       H  0.67923333  0.34549535  0.00845662     0.07900
C1277       C  0.50753326  0.30472051  0.87462915    -0.11200
C1278       C  0.50448340  0.32724199  0.86345609     0.05900
C1279       C  0.52493965  0.34111477  0.85826443    -0.10000
C1280       C  0.54793601  0.33237215  0.86336632    -0.11600
C1281       C  0.55104828  0.30953905  0.87379395    -0.01400
C1282       C  0.53059626  0.29593862  0.87972119    -0.10500
C1283       C  0.48022163  0.33560783  0.85592109     0.05900
H1284       H  0.52317374  0.35867856  0.85000881     0.07900
H1285       H  0.56332250  0.34335839  0.85869556     0.11300
H1286       H  0.53242341  0.27828655  0.88777444     0.11600
H1287       H  0.49213534  0.29349384  0.87863525     0.07900
C1288       C  0.47694625  0.34652861  0.83332536    -0.11200
C1289       C  0.45395820  0.35277283  0.82528032    -0.10500
C1290       C  0.43370298  0.34817116  0.83961481    -0.01400
C1291       C  0.43701166  0.33802300  0.86255710    -0.11600
C1292       C  0.46003857  0.33179744  0.87062523    -0.10000
H1293       H  0.49207683  0.34943055  0.82143145     0.07900
H1294       H  0.45199019  0.36046011  0.80748157     0.11600
H1295       H  0.42174372  0.33434683  0.87405899     0.11300
H1296       H  0.46203029  0.32374476  0.88825720     0.07900
loop_ 
_geom_bond_atom_site_label_1 
_geom_bond_atom_site_label_2 
_geom_bond_distance 
_geom_bond_site_symmetry_2 
_ccdc_geom_bond_type 
O1            V9   1.894       .  S
O1           C11   1.264       .  A
O2            V9   1.896       .  S
O2           C12   1.264       .  A
O3            V9   1.901       .  S
O3           C13   1.265       .  A
O4            V9   1.900       .  S
O4           C14   1.265       .  A
O5           V10   1.892       .  S
O5           C14   1.263       .  A
O6           V10   1.893       .  S
O6           C13   1.263       .  A
O7           V10   1.902       .  S
O7           C12   1.266       .  A
O8           V10   1.905       .  S
O8           C11   1.266       .  A
V9           V10   2.086       .  T
C11        C1281   1.480       .  S
C12        C1221   1.479       .  S
C13        C1241   1.476       .  S
C14        C1261   1.476       .  S
O15          V23   1.893       .  S
O15          C25   1.263       .  A
O16          V23   1.894       .  S
O16          C26   1.264       .  A
O17          V23   1.899       .  S
O17          C27   1.265       .  A
O18          V23   1.898       .  S
O18          C28   1.265       .  A
O19          V24   1.893       .  S
O19          C28   1.263       .  A
O20          V24   1.894       .  S
O20          C27   1.263       .  A
O21          V24   1.897       .  S
O21          C26   1.264       .  A
O22          V24   1.896       .  S
O22          C25   1.264       .  A
V23          V24   2.087       .  T
C25        C1201   1.474       .  S
C26        C1141   1.474       .  S
C27        C1161   1.475       .  S
C28        C1181   1.476       .  S
O29          V37   1.896       .  S
O29          C39   1.264       .  A
O30          V37   1.893       .  S
O30          C40   1.263       .  A
O31          V37   1.901       .  S
O31          C41   1.265       .  A
O32          V37   1.900       .  S
O32          C42   1.266       .  A
O33          V38   1.897       .  S
O33          C42   1.264       .  A
O34          V38   1.896       .  S
O34          C41   1.264       .  A
O35          V38   1.896       .  S
O35          C40   1.264       .  A
O36          V38   1.893       .  S
O36          C39   1.264       .  A
V37          V38   2.087       .  T
C39        C1210   1.474       .  S
C40        C1121   1.474       .  S
C41        C1110   1.474       .  S
C42        C1290   1.479       .  S
O43          V51   1.900       .  S
O43          C53   1.265       .  A
O44          V51   1.900       .  S
O44          C54   1.264       .  A
O45          V51   1.898       .  S
O45          C55   1.265       .  A
O46          V51   1.897       .  S
O46          C56   1.264       .  A
O47          V52   1.900       .  S
O47          C56   1.265       .  A
O48          V52   1.901       .  S
O48          C55   1.265       .  A
O49          V52   1.899       .  S
O49          C54   1.264       .  A
O50          V52   1.902       .  S
O50          C53   1.265       .  A
V51          V52   2.085       .  T
C53        C1090   1.476       .  S
C54        C1041   1.470       .  S
C55        C1021   1.479       .  S
C56        C1070   1.479       .  S
O57          V65   1.899       .  S
O57          C67   1.264       .  A
O58          V65   1.896       .  S
O58          C68   1.263       .  A
O59          V65   1.899       .  S
O59          C69   1.265       .  A
O60          V65   1.900       .  S
O60          C70   1.265       .  A
O61          V66   1.894       .  S
O61          C70   1.264       .  A
O62          V66   1.895       .  S
O62          C69   1.264       .  A
O63          V66   1.901       .  S
O63          C68   1.264       .  A
O64          V66   1.902       .  S
O64          C67   1.266       .  A
V65          V66   2.085       .  T
C67        C1081   1.477       .  S
C68         C981   1.470       .  S
C69        C1001   1.476       .  S
C70        C1270   1.477       .  S
O71          V79   1.899       .  S
O71          C81   1.265       .  A
O72          V79   1.896       .  S
O72          C82   1.264       .  A
O73          V79   1.902       .  S
O73          C83   1.265       .  A
O74          V79   1.901       .  S
O74          C84   1.266       .  A
O75          V80   1.894       .  S
O75          C84   1.263       .  A
O76          V80   1.896       .  S
O76          C83   1.263       .  A
O77          V80   1.900       .  S
O77          C82   1.265       .  A
O78          V80   1.896       .  S
O78          C81   1.264       .  A
V79          V80   2.087       .  T
C81        C1061   1.478       .  S
C82         C961   1.477       .  S
C83         C941   1.475       .  S
C84        C1190   1.477       .  S
O85          V93   1.896       .  S
O85          C95   1.264       .  A
O86          V93   1.896       .  S
O86          C96   1.264       .  A
O87          V93   1.901       .  S
O87          C97   1.265       .  A
O88          V93   1.900       .  S
O88          C98   1.265       .  A
O89          V94   1.894       .  S
O89          C98   1.263       .  A
O90          V94   1.894       .  S
O90          C97   1.263       .  A
O91          V94   1.897       .  S
O91          C96   1.265       .  A
O92          V94   1.895       .  S
O92          C95   1.264       .  A
V93          V94   2.085       .  T
C95         C921   1.475       .  S
C96        C1250   1.476       .  S
C97         C881   1.468       .  S
C98         C901   1.469       .  S
O99         V107   1.899       .  S
O99         C109   1.265       .  A
O100        V107   1.900       .  S
O100        C110   1.265       .  A
O101        V107   1.899       .  S
O101        C111   1.264       .  A
O102        V107   1.900       .  S
O102        C112   1.264       .  A
O103        V108   1.892       .  S
O103        C112   1.263       .  A
O104        V108   1.895       .  S
O104        C111   1.263       .  A
O105        V108   1.896       .  S
O105        C110   1.264       .  A
O106        V108   1.894       .  S
O106        C109   1.264       .  A
V107        V108   2.085       .  T
C109        C930   1.476       .  S
C110        C841   1.477       .  S
C111        C830   1.469       .  S
C112        C861   1.470       .  S
O113        V121   1.895       .  S
O113        C123   1.263       .  A
O114        V121   1.894       .  S
O114        C124   1.264       .  A
O115        V121   1.897       .  S
O115        C125   1.265       .  A
O116        V121   1.897       .  S
O116        C126   1.265       .  A
O117        V122   1.894       .  S
O117        C126   1.264       .  A
O118        V122   1.895       .  S
O118        C125   1.264       .  A
O119        V122   1.901       .  S
O119        C124   1.265       .  A
O120        V122   1.900       .  S
O120        C123   1.265       .  A
V121        V122   2.086       .  T
C123        C910   1.473       .  S
C124        C790   1.472       .  S
C125       C1130   1.474       .  S
C126        C801   1.476       .  S
O127        V135   1.897       .  S
O127        C137   1.264       .  A
O128        V135   1.897       .  S
O128        C138   1.264       .  A
O129        V135   1.897       .  S
O129        C139   1.265       .  A
O130        V135   1.897       .  S
O130        C140   1.264       .  A
O131        V136   1.899       .  S
O131        C140   1.265       .  A
O132        V136   1.900       .  S
O132        C139   1.265       .  A
O133        V136   1.900       .  S
O133        C138   1.264       .  A
O134        V136   1.901       .  S
O134        C137   1.265       .  A
V135        V136   2.084       .  T
C137        C761   1.473       .  S
C138        C721   1.468       .  S
C139        C741   1.478       .  S
C140        C810   1.477       .  S
O141        V149   1.895       .  S
O141        C151   1.264       .  A
O142        V149   1.894       .  S
O142        C152   1.264       .  A
O143        V149   1.901       .  S
O143        C153   1.265       .  A
O144        V149   1.900       .  S
O144        C154   1.265       .  A
O145        V150   1.893       .  S
O145        C154   1.263       .  A
O146        V150   1.896       .  S
O146        C153   1.264       .  A
O147        V150   1.899       .  S
O147        C152   1.265       .  A
O148        V150   1.897       .  S
O148        C151   1.265       .  A
V149        V150   2.085       .  T
C151        C701   1.476       .  S
C152        C681   1.475       .  S
C153       C1050   1.474       .  S
C154        C870   1.470       .  S
O155        V163   1.900       .  S
O155        C165   1.265       .  A
O156        V163   1.899       .  S
O156        C166   1.264       .  A
O157        V163   1.896       .  S
O157        C167   1.264       .  A
O158        V163   1.894       .  S
O158        C168   1.264       .  A
O159        V164   1.899       .  S
O159        C168   1.265       .  A
O160        V164   1.900       .  S
O160        C167   1.265       .  A
O161        V164   1.901       .  S
O161        C166   1.264       .  A
O162        V164   1.900       .  S
O162        C165   1.265       .  A
V163        V164   2.085       .  T
C165        C770   1.476       .  S
C166        C950   1.472       .  S
C167        C661   1.477       .  S
C168        C710   1.476       .  S
O169        V177   1.893       .  S
O169        C179   1.263       .  A
O170        V177   1.897       .  S
O170        C180   1.264       .  A
O171        V177   1.905       .  S
O171        C181   1.266       .  A
O172        V177   1.901       .  S
O172        C182   1.265       .  A
O173        V178   1.892       .  S
O173        C182   1.262       .  A
O174        V178   1.894       .  S
O174        C181   1.264       .  A
O175        V178   1.895       .  S
O175        C180   1.264       .  A
O176        V178   1.897       .  S
O176        C179   1.265       .  A
V177        V178   2.086       .  T
C179        C650   1.474       .  S
C180        C970   1.476       .  S
C181        C601   1.479       .  S
C182        C621   1.469       .  S
O183        V191   1.892       .  S
O183        C193   1.263       .  A
O184        V191   1.896       .  S
O184        C194   1.264       .  A
O185        V191   1.904       .  S
O185        C195   1.266       .  A
O186        V191   1.902       .  S
O186        C196   1.265       .  A
O187        V192   1.891       .  S
O187        C196   1.262       .  A
O188        V192   1.891       .  S
O188        C195   1.263       .  A
O189        V192   1.895       .  S
O189        C194   1.265       .  A
O190        V192   1.898       .  S
O190        C193   1.265       .  A
V191        V192   2.086       .  T
C193        C641   1.474       .  S
C194        C690   1.475       .  S
C195        C561   1.477       .  S
C196        C590   1.470       .  S
O197        V205   1.892       .  S
O197        C207   1.263       .  A
O198        V205   1.894       .  S
O198        C208   1.263       .  A
O199        V205   1.897       .  S
O199        C209   1.265       .  A
O200        V205   1.896       .  S
O200        C210   1.264       .  A
O201        V206   1.891       .  S
O201        C210   1.263       .  A
O202        V206   1.893       .  S
O202        C209   1.263       .  A
O203        V206   1.900       .  S
O203        C208   1.265       .  A
O204        V206   1.901       .  S
O204        C207   1.265       .  A
V205        V206   2.086       .  T
C207        C630   1.470       .  S
C208        C730   1.471       .  S
C209       C1150   1.474       .  S
C210        C541   1.473       .  S
O211        V219   1.894       .  S
O211        C221   1.263       .  A
O212        V219   1.896       .  S
O212        C222   1.263       .  A
O213        V219   1.898       .  S
O213        C223   1.265       .  A
O214        V219   1.893       .  S
O214        C224   1.264       .  A
O215        V220   1.894       .  S
O215        C224   1.264       .  A
O216        V220   1.893       .  S
O216        C223   1.264       .  A
O217        V220   1.900       .  S
O217        C222   1.264       .  A
O218        V220   1.899       .  S
O218        C221   1.265       .  A
V219        V220   2.085       .  T
C221        C530   1.471       .  S
C222        C781   1.468       .  S
C223        C510   1.474       .  S
C224        C550   1.472       .  S
O225        V233   1.892       .  S
O225        C235   1.263       .  A
O226        V233   1.895       .  S
O226        C236   1.263       .  A
O227        V233   1.896       .  S
O227        C237   1.265       .  A
O228        V233   1.894       .  S
O228        C238   1.264       .  A
O229        V234   1.898       .  S
O229        C238   1.265       .  A
O230        V234   1.900       .  S
O230        C237   1.265       .  A
O231        V234   1.899       .  S
O231        C236   1.265       .  A
O232        V234   1.901       .  S
O232        C235   1.265       .  A
V233        V234   2.086       .  T
C235        C581   1.471       .  S
C236        C990   1.470       .  S
C237        C850   1.477       .  S
C238        C481   1.475       .  S
O239        V247   1.895       .  S
O239        C249   1.263       .  A
O240        V247   1.897       .  S
O240        C250   1.265       .  A
O241        V247   1.892       .  S
O241        C251   1.263       .  A
O242        V247   1.894       .  S
O242        C252   1.263       .  A
O243        V248   1.898       .  S
O243        C252   1.265       .  A
O244        V248   1.903       .  S
O244        C251   1.266       .  A
O245        V248   1.900       .  S
O245        C250   1.265       .  A
O246        V248   1.899       .  S
O246        C249   1.264       .  A
V247        V248   2.086       .  T
C249        C521   1.469       .  S
C250       C1230   1.478       .  S
C251        C461   1.477       .  S
C252        C490   1.475       .  S
O253        V261   1.890       .  S
O253        C263   1.262       .  A
O254        V261   1.891       .  S
O254        C264   1.263       .  A
O255        V261   1.899       .  S
O255        C265   1.265       .  A
O256        V261   1.902       .  S
O256        C266   1.266       .  A
O257        V262   1.896       .  S
O257        C266   1.264       .  A
O258        V262   1.899       .  S
O258        C265   1.265       .  A
O259        V262   1.902       .  S
O259        C264   1.265       .  A
O260        V262   1.901       .  S
O260        C263   1.265       .  A
V261        V262   2.087       .  T
C263        C421   1.467       .  S
C264       C1170   1.475       .  S
C265        C750   1.478       .  S
C266        C441   1.479       .  S
O267        V275   1.893       .  S
O267        C277   1.263       .  A
O268        V275   1.895       .  S
O268        C278   1.263       .  A
O269        V275   1.895       .  S
O269        C279   1.265       .  A
O270        V275   1.897       .  S
O270        C280   1.264       .  A
O271        V276   1.898       .  S
O271        C280   1.265       .  A
O272        V276   1.898       .  S
O272        C279   1.264       .  A
O273        V276   1.901       .  S
O273        C278   1.264       .  A
O274        V276   1.901       .  S
O274        C277   1.265       .  A
V275        V276   2.085       .  T
C277        C401   1.473       .  S
C278       C1101   1.468       .  S
C279        C501   1.475       .  S
C280        C450   1.478       .  S
O281        V289   1.896       .  S
O281        C291   1.264       .  A
O282        V289   1.901       .  S
O282        C292   1.265       .  A
O283        V289   1.900       .  S
O283        C293   1.265       .  A
O284        V289   1.899       .  S
O284        C294   1.264       .  A
O285        V290   1.895       .  S
O285        C294   1.264       .  A
O286        V290   1.897       .  S
O286        C293   1.265       .  A
O287        V290   1.896       .  S
O287        C292   1.264       .  A
O288        V290   1.897       .  S
O288        C291   1.264       .  A
V289        V290   2.087       .  T
C291        C390   1.476       .  S
C292        C670   1.478       .  S
C293        C610   1.479       .  S
C294        C430   1.473       .  S
O295        V303   1.892       .  S
O295        C305   1.262       .  A
O296        V303   1.892       .  S
O296        C306   1.263       .  A
O297        V303   1.897       .  S
O297        C307   1.265       .  A
O298        V303   1.897       .  S
O298        C308   1.265       .  A
O299        V304   1.896       .  S
O299        C308   1.265       .  A
O300        V304   1.899       .  S
O300        C307   1.265       .  A
O301        V304   1.901       .  S
O301        C306   1.265       .  A
O302        V304   1.901       .  S
O302        C305   1.265       .  A
V303        V304   2.085       .  T
C305        C410   1.467       .  S
C306        C890   1.471       .  S
C307        C470   1.477       .  S
C308        C361   1.476       .  S
O309        V317   1.896       .  S
O309        C319   1.264       .  A
O310        V317   1.900       .  S
O310        C320   1.265       .  A
O311        V317   1.903       .  S
O311        C321   1.266       .  A
O312        V317   1.901       .  S
O312        C322   1.265       .  A
O313        V318   1.888       .  S
O313        C322   1.262       .  A
O314        V318   1.891       .  S
O314        C321   1.263       .  A
O315        V318   1.897       .  S
O315        C320   1.265       .  A
O316        V318   1.899       .  S
O316        C319   1.265       .  A
V317        V318   2.087       .  T
C319        C381   1.477       .  S
C320       C1030   1.478       .  S
C321        C570   1.477       .  S
C322        C341   1.467       .  S
O323        V331   1.897       .  S
O323        C333   1.264       .  A
O324        V331   1.896       .  S
O324        C334   1.264       .  A
O325        V331   1.898       .  S
O325        C335   1.264       .  A
O326        V331   1.898       .  S
O326        C336   1.264       .  A
O327        V332   1.890       .  S
O327        C336   1.263       .  A
O328        V332   1.895       .  S
O328        C335   1.263       .  A
O329        V332   1.897       .  S
O329        C334   1.265       .  A
O330        V332   1.895       .  S
O330        C333   1.264       .  A
V331        V332   2.086       .  T
C333        C370   1.475       .  S
C334       C1010   1.475       .  S
C335        C821   1.468       .  S
C336        C350   1.466       .  S
C337        C338   1.406       .  A
C337        C342   1.393       .  A
C337        H347   1.082       .  S
C338        C343   1.485       .  S
C338        C339   1.409       .  A
C339        C340   1.397       .  A
C339        H344   1.082       .  S
C340        C341   1.401       .  A
C340        H345   1.083       .  S
C341        C342   1.402       .  A
C342        H346   1.084       .  S
C343        C348   1.409       .  A
C343        C352   1.406       .  A
C348        C349   1.397       .  A
C348        H353   1.082       .  S
C349        C350   1.401       .  A
C349        H354   1.083       .  S
C350        C351   1.401       .  A
C351        C352   1.392       .  A
C351        H355   1.084       .  S
C352        H356   1.082       .  S
C357        C358   1.405       .  A
C357        C362   1.395       .  A
C357        H367   1.083       .  S
C358        C363   1.479       .  S
C358        C359   1.404       .  A
C359        C360   1.397       .  A
C359        H364   1.083       .  S
C360        C361   1.405       .  A
C360        H365   1.083       .  S
C361        C362   1.404       .  A
C362        H366   1.083       .  S
C363        C368   1.404       .  A
C363        C372   1.405       .  A
C368        C369   1.395       .  A
C368        H373   1.083       .  S
C369        C370   1.405       .  A
C369        H374   1.083       .  S
C370        C371   1.405       .  A
C371        C372   1.396       .  A
C371        H375   1.083       .  S
C372        H376   1.083       .  S
C377        C378   1.406       .  A
C377        C382   1.396       .  A
C377        H387   1.083       .  S
C378        C383   1.484   1_655  S
C378        C379   1.406       .  A
C379        C380   1.397       .  A
C379        H384   1.083       .  S
C380        C381   1.404       .  A
C380        H385   1.083       .  S
C381        C382   1.405       .  A
C382        H386   1.083       .  S
C383        C388   1.405       .  A
C383        C392   1.406       .  A
C388        C389   1.397       .  A
C388        H393   1.083       .  S
C389        C390   1.405       .  A
C389        H394   1.083       .  S
C390        C391   1.404       .  A
C391        C392   1.396       .  A
C391        H395   1.083       .  S
C392        H396   1.083   1_455  S
C397        C398   1.409       .  A
C397        C402   1.398       .  A
C397        H407   1.082   1_455  S
C398        C403   1.490   1_455  S
C398        C399   1.407       .  A
C399        C400   1.394       .  A
C399        H404   1.082       .  S
C400        C401   1.402       .  A
C400        H405   1.083       .  S
C401        C402   1.403       .  A
C402        H406   1.083       .  S
C403        C408   1.408       .  A
C403        C412   1.410       .  A
C408        C409   1.395       .  A
C408        H413   1.082       .  S
C409        C410   1.401       .  A
C409        H414   1.084       .  S
C410        C411   1.400       .  A
C411        C412   1.397       .  A
C411        H415   1.083       .  S
C412        H416   1.082       .  S
C417        C418   1.408       .  A
C417        C422   1.394       .  A
C417        H427   1.082       .  S
C418        C423   1.491       .  S
C418        C419   1.410       .  A
C419        C420   1.398       .  A
C419        H424   1.082       .  S
C420        C421   1.400       .  A
C420        H425   1.083       .  S
C421        C422   1.401       .  A
C422        H426   1.083       .  S
C423        C428   1.410       .  A
C423        C432   1.408       .  A
C428        C429   1.397       .  A
C428        H433   1.082       .  S
C429        C430   1.402       .  A
C429        H434   1.083       .  S
C430        C431   1.402       .  A
C431        C432   1.395       .  A
C431        H435   1.083       .  S
C432        H436   1.082       .  S
C437        C438   1.405       .  A
C437        C442   1.397       .  A
C437        H447   1.083       .  S
C438        C443   1.485       .  S
C438        C439   1.406       .  A
C439        C440   1.397       .  A
C439        H444   1.083       .  S
C440        C441   1.404       .  A
C440        H445   1.083       .  S
C441        C442   1.406       .  A
C442        H446   1.083       .  S
C443        C448   1.406       .  A
C443        C452   1.405       .  A
C448        C449   1.399       .  A
C448        H453   1.083       .  S
C449        C450   1.406       .  A
C449        H454   1.083       .  S
C450        C451   1.404       .  A
C451        C452   1.395       .  A
C451        H455   1.083       .  S
C452        H456   1.083       .  S
C457        C458   1.404       .  A
C457        C462   1.395       .  A
C457        H467   1.083       .  S
C458        C463   1.483       .  S
C458        C459   1.406       .  A
C459        C460   1.398       .  A
C459        H464   1.083       .  S
C460        C461   1.404       .  A
C460        H465   1.083       .  S
C461        C462   1.405       .  A
C462        H466   1.083       .  S
C463        C468   1.406       .  A
C463        C472   1.404       .  A
C468        C469   1.398       .  A
C468        H473   1.083       .  S
C469        C470   1.405       .  A
C469        H474   1.083       .  S
C470        C471   1.405       .  A
C471        C472   1.396       .  A
C471        H475   1.083       .  S
C472        H476   1.083       .  S
C477        C478   1.404       .  A
C477        C482   1.396       .  A
C477        H487   1.083       .  S
C478        C483   1.480   1_554  S
C478        C479   1.406       .  A
C479        C480   1.396       .  A
C479        H484   1.083       .  S
C480        C481   1.404       .  A
C480        H485   1.083       .  S
C481        C482   1.405       .  A
C482        H486   1.083       .  S
C483        C488   1.405       .  A
C483        C492   1.404       .  A
C488        C489   1.396       .  A
C488        H493   1.083   1_556  S
C489        C490   1.404       .  A
C489        H494   1.083       .  S
C490        C491   1.405       .  A
C491        C492   1.396       .  A
C491        H495   1.083       .  S
C492        H496   1.083       .  S
C497        C498   1.403       .  A
C497        C502   1.393       .  A
C497        H507   1.083       .  S
C498        C503   1.476       .  S
C498        C499   1.404       .  A
C499        C500   1.399       .  A
C499        H504   1.083       .  S
C500        C501   1.406       .  A
C500        H505   1.083       .  S
C501        C502   1.404       .  A
C502        H506   1.083       .  S
C503        C508   1.403       .  A
C503        C512   1.404       .  A
C508        C509   1.394       .  A
C508        H513   1.083       .  S
C509        C510   1.404       .  A
C509        H514   1.083       .  S
C510        C511   1.405       .  A
C511        C512   1.397       .  A
C511        H515   1.083       .  S
C512        H516   1.083       .  S
C517        C518   1.409       .  A
C517        C522   1.398       .  A
C517        H527   1.082       .  S
C518        C523   1.490   1_655  S
C518        C519   1.408       .  A
C519        C520   1.394       .  A
C519        H524   1.082       .  S
C520        C521   1.400       .  A
C520        H525   1.084       .  S
C521        C522   1.402       .  A
C522        H526   1.083       .  S
C523        C528   1.408       .  A
C523        C532   1.409       .  A
C528        C529   1.396       .  A
C528        H533   1.082       .  S
C529        C530   1.403       .  A
C529        H534   1.083       .  S
C530        C531   1.401       .  A
C531        C532   1.396       .  A
C531        H535   1.083       .  S
C532        H536   1.082   1_455  S
C537        C538   1.403       .  A
C537        C542   1.393       .  A
C537        H547   1.083       .  S
C538        C543   1.475       .  S
C538        C539   1.404       .  A
C539        C540   1.396       .  A
C539        H544   1.083       .  S
C540        C541   1.405       .  A
C540        H545   1.083       .  S
C541        C542   1.404       .  A
C542        H546   1.083       .  S
C543        C548   1.403   1_565  A
C543        C552   1.404       .  A
C548        C549   1.394       .  A
C548        H553   1.083       .  S
C549        C550   1.404       .  A
C549        H554   1.083       .  S
C550        C551   1.405       .  A
C551        C552   1.395   1_545  A
C551        H555   1.083       .  S
C552        H556   1.083       .  S
C557        C558   1.407       .  A
C557        C562   1.399       .  A
C557        H567   1.083       .  S
C558        C563   1.484       .  S
C558        C559   1.404       .  A
C559        C560   1.394       .  A
C559        H564   1.083       .  S
C560        C561   1.405       .  A
C560        H565   1.083       .  S
C561        C562   1.404       .  A
C562        H566   1.083       .  S
C563        C568   1.407       .  A
C563        C572   1.404       .  A
C568        C569   1.397       .  A
C568        H573   1.083       .  S
C569        C570   1.404       .  A
C569        H574   1.083       .  S
C570        C571   1.406       .  A
C571        C572   1.395       .  A
C571        H575   1.083       .  S
C572        H576   1.083       .  S
C577        C578   1.407   1_545  A
C577        C582   1.393       .  A
C577        H587   1.082       .  S
C578        C583   1.491       .  S
C578        C579   1.410       .  A
C579        C580   1.399   1_565  A
C579        H584   1.082       .  S
C580        C581   1.402       .  A
C580        H585   1.083       .  S
C581        C582   1.401       .  A
C582        H586   1.083       .  S
C583        C588   1.410       .  A
C583        C592   1.408       .  A
C588        C589   1.397       .  A
C588        H593   1.082       .  S
C589        C590   1.400       .  A
C589        H594   1.083       .  S
C590        C591   1.402       .  A
C591        C592   1.395       .  A
C591        H595   1.083       .  S
C592        H596   1.082       .  S
C597        C598   1.407       .  A
C597        C602   1.400       .  A
C597        H607   1.083       .  S
C598        C603   1.484       .  S
C598        C599   1.404       .  A
C599        C600   1.395       .  A
C599        H604   1.083       .  S
C600        C601   1.405       .  A
C600        H605   1.083       .  S
C601        C602   1.405       .  A
C602        H606   1.083       .  S
C603        C608   1.406       .  A
C603        C612   1.405       .  A
C608        C609   1.398       .  A
C608        H613   1.083       .  S
C609        C610   1.405       .  A
C609        H614   1.083       .  S
C610        C611   1.405       .  A
C611        C612   1.397       .  A
C611        H615   1.083       .  S
C612        H616   1.083       .  S
C617        C618   1.410       .  A
C617        C622   1.396       .  A
C617        H627   1.082       .  S
C618        C623   1.490   1_554  S
C618        C619   1.408       .  A
C619        C620   1.396       .  A
C619        H624   1.082       .  S
C620        C621   1.402       .  A
C620        H625   1.084       .  S
C621        C622   1.400       .  A
C622        H626   1.083       .  S
C623        C628   1.407       .  A
C623        C632   1.410       .  A
C628        C629   1.393       .  A
C628        H633   1.082       .  S
C629        C630   1.401       .  A
C629        H634   1.084       .  S
C630        C631   1.402       .  A
C631        C632   1.399       .  A
C631        H635   1.083       .  S
C632        H636   1.082   1_556  S
C637        C638   1.405       .  A
C637        C642   1.397       .  A
C637        H647   1.083       .  S
C638        C643   1.479   1_655  S
C638        C639   1.404       .  A
C639        C640   1.394       .  A
C639        H644   1.083       .  S
C640        C641   1.404       .  A
C640        H645   1.083       .  S
C641        C642   1.405       .  A
C642        H646   1.083       .  S
C643        C648   1.404       .  A
C643        C652   1.405       .  A
C648        C649   1.395       .  A
C648        H653   1.083   1_455  S
C649        C650   1.405       .  A
C649        H654   1.083       .  S
C650        C651   1.404       .  A
C651        C652   1.396       .  A
C651        H655   1.083       .  S
C652        H656   1.083       .  S
C657        C658   1.404       .  A
C657        C662   1.398       .  A
C657        H667   1.083       .  S
C658        C663   1.479       .  S
C658        C659   1.404       .  A
C659        C660   1.396       .  A
C659        H664   1.083       .  S
C660        C661   1.405       .  A
C660        H665   1.083       .  S
C661        C662   1.405       .  A
C662        H666   1.083       .  S
C663        C668   1.404       .  A
C663        C672   1.404       .  A
C668        C669   1.396       .  A
C668        H673   1.083       .  S
C669        C670   1.406       .  A
C669        H674   1.083       .  S
C670        C671   1.405       .  A
C671        C672   1.398       .  A
C671        H675   1.083       .  S
C672        H676   1.083       .  S
C677        C678   1.404       .  A
C677        C682   1.397       .  A
C677        H687   1.083       .  S
C678        C683   1.478       .  S
C678        C679   1.403       .  A
C679        C680   1.394       .  A
C679        H684   1.083       .  S
C680        C681   1.405       .  A
C680        H685   1.083       .  S
C681        C682   1.405       .  A
C682        H686   1.083       .  S
C683        C688   1.404       .  A
C683        C692   1.404       .  A
C688        C689   1.398       .  A
C688        H693   1.083       .  S
C689        C690   1.406       .  A
C689        H694   1.083       .  S
C690        C691   1.404       .  A
C691        C692   1.394       .  A
C691        H695   1.083       .  S
C692        H696   1.083       .  S
C697        C698   1.406       .  A
C697        C702   1.396       .  A
C697        H707   1.083       .  S
C698        C703   1.482       .  S
C698        C699   1.405       .  A
C699        C700   1.396       .  A
C699        H704   1.083       .  S
C700        C701   1.404       .  A
C700        H705   1.083       .  S
C701        C702   1.405       .  A
C702        H706   1.083       .  S
C703        C708   1.404       .  A
C703        C712   1.406       .  A
C708        C709   1.396       .  A
C708        H713   1.083       .  S
C709        C710   1.405       .  A
C709        H714   1.083       .  S
C710        C711   1.404       .  A
C711        C712   1.396       .  A
C711        H715   1.083       .  S
C712        H716   1.083       .  S
C717        C718   1.409       .  A
C717        C722   1.397       .  A
C717        H727   1.082       .  S
C718        C723   1.489       .  S
C718        C719   1.408       .  A
C719        C720   1.396       .  A
C719        H724   1.082       .  S
C720        C721   1.401       .  A
C720        H725   1.083       .  S
C721        C722   1.401       .  A
C722        H726   1.084       .  S
C723        C728   1.407       .  A
C723        C732   1.409       .  A
C728        C729   1.396       .  A
C728        H733   1.082       .  S
C729        C730   1.403       .  A
C729        H734   1.083       .  S
C730        C731   1.401       .  A
C731        C732   1.396       .  A
C731        H735   1.083       .  S
C732        H736   1.082       .  S
C737        C738   1.405       .  A
C737        C742   1.397       .  A
C737        H747   1.083       .  S
C738        C743   1.483       .  S
C738        C739   1.405       .  A
C739        C740   1.398       .  A
C739        H744   1.083       .  S
C740        C741   1.405       .  A
C740        H745   1.083       .  S
C741        C742   1.405       .  A
C742        H746   1.083       .  S
C743        C748   1.405       .  A
C743        C752   1.405       .  A
C748        C749   1.398       .  A
C748        H753   1.083       .  S
C749        C750   1.405       .  A
C749        H754   1.083       .  S
C750        C751   1.405       .  A
C751        C752   1.397       .  A
C751        H755   1.083       .  S
C752        H756   1.083       .  S
C757        C758   1.409       .  A
C757        C762   1.396       .  A
C757        H767   1.082       .  S
C758        C763   1.495       .  S
C758        C759   1.410       .  A
C759        C760   1.399       .  A
C759        H764   1.082       .  S
C760        C761   1.402       .  A
C760        H765   1.083       .  S
C761        C762   1.401       .  A
C762        H766   1.083       .  S
C763        C768   1.410       .  A
C763        C772   1.409       .  A
C768        C769   1.398       .  A
C768        H773   1.082       .  S
C769        C770   1.402       .  A
C769        H774   1.083       .  S
C770        C771   1.403       .  A
C771        C772   1.398       .  A
C771        H775   1.083       .  S
C772        H776   1.082       .  S
C777        C778   1.408       .  A
C777        C782   1.397       .  A
C777        H787   1.082       .  S
C778        C783   1.491       .  S
C778        C779   1.410       .  A
C779        C780   1.396       .  A
C779        H784   1.082       .  S
C780        C781   1.399       .  A
C780        H785   1.083       .  S
C781        C782   1.402       .  A
C782        H786   1.083       .  S
C783        C788   1.410       .  A
C783        C792   1.407       .  A
C788        C789   1.398       .  A
C788        H793   1.082       .  S
C789        C790   1.402       .  A
C789        H794   1.083       .  S
C790        C791   1.402       .  A
C791        C792   1.395       .  A
C791        H795   1.083       .  S
C792        H796   1.082       .  S
C797        C798   1.406   1_545  A
C797        C802   1.396       .  A
C797        H807   1.083       .  S
C798        C803   1.484       .  S
C798        C799   1.406       .  A
C799        C800   1.396   1_565  A
C799        H804   1.083       .  S
C800        C801   1.405       .  A
C800        H805   1.083       .  S
C801        C802   1.404       .  A
C802        H806   1.083       .  S
C803        C808   1.406       .  A
C803        C812   1.405       .  A
C808        C809   1.396       .  A
C808        H813   1.083       .  S
C809        C810   1.404       .  A
C809        H814   1.083       .  S
C810        C811   1.405       .  A
C811        C812   1.397       .  A
C811        H815   1.083       .  S
C812        H816   1.083       .  S
C817        C818   1.409       .  A
C817        C822   1.396       .  A
C817        H827   1.082       .  S
C818        C823   1.489       .  S
C818        C819   1.408       .  A
C819        C820   1.396       .  A
C819        H824   1.082       .  S
C820        C821   1.402       .  A
C820        H825   1.083       .  S
C821        C822   1.400       .  A
C822        H826   1.083       .  S
C823        C828   1.408       .  A
C823        C832   1.409       .  A
C828        C829   1.396       .  A
C828        H833   1.082       .  S
C829        C830   1.402       .  A
C829        H834   1.083       .  S
C830        C831   1.401       .  A
C831        C832   1.396       .  A
C831        H835   1.083       .  S
C832        H836   1.082       .  S
C837        C838   1.405       .  A
C837        C842   1.397       .  A
C837        H847   1.083       .  S
C838        C843   1.482       .  S
C838        C839   1.405       .  A
C839        C840   1.397       .  A
C839        H844   1.083       .  S
C840        C841   1.405       .  A
C840        H845   1.083       .  S
C841        C842   1.405       .  A
C842        H846   1.083       .  S
C843        C848   1.405       .  A
C843        C852   1.404       .  A
C848        C849   1.398       .  A
C848        H853   1.083       .  S
C849        C850   1.405       .  A
C849        H854   1.083       .  S
C850        C851   1.405       .  A
C851        C852   1.395       .  A
C851        H855   1.083       .  S
C852        H856   1.083       .  S
C857        C858   1.407   1_545  A
C857        C862   1.393       .  A
C857        H867   1.082       .  S
C858        C863   1.490       .  S
C858        C859   1.410       .  A
C859        C860   1.399   1_565  A
C859        H864   1.082       .  S
C860        C861   1.402       .  A
C860        H865   1.083       .  S
C861        C862   1.401       .  A
C862        H866   1.083       .  S
C863        C868   1.410       .  A
C863        C872   1.408       .  A
C868        C869   1.397       .  A
C868        H873   1.082       .  S
C869        C870   1.401       .  A
C869        H874   1.083       .  S
C870        C871   1.402       .  A
C871        C872   1.395       .  A
C871        H875   1.083       .  S
C872        H876   1.082       .  S
C877        C878   1.408       .  A
C877        C882   1.395       .  A
C877        H887   1.082       .  S
C878        C883   1.491       .  S
C878        C879   1.410       .  A
C879        C880   1.397       .  A
C879        H884   1.082       .  S
C880        C881   1.400       .  A
C880        H885   1.083       .  S
C881        C882   1.401       .  A
C882        H886   1.083       .  S
C883        C888   1.410       .  A
C883        C892   1.408       .  A
C888        C889   1.397       .  A
C888        H893   1.082       .  S
C889        C890   1.401       .  A
C889        H894   1.083       .  S
C890        C891   1.402       .  A
C891        C892   1.395       .  A
C891        H895   1.083       .  S
C892        H896   1.082       .  S
C897        C898   1.409       .  A
C897        C902   1.395       .  A
C897        H907   1.082       .  S
C898        C903   1.491       .  S
C898        C899   1.410       .  A
C899        C900   1.398       .  A
C899        H904   1.082       .  S
C900        C901   1.401       .  A
C900        H905   1.083       .  S
C901        C902   1.401       .  A
C902        H906   1.084       .  S
C903        C908   1.409       .  A
C903        C912   1.409       .  A
C908        C909   1.397       .  A
C908        H913   1.082       .  S
C909        C910   1.402       .  A
C909        H914   1.083       .  S
C910        C911   1.402       .  A
C911        C912   1.396       .  A
C911        H915   1.083       .  S
C912        H916   1.082       .  S
C917        C918   1.404       .  A
C917        C922   1.395       .  A
C917        H927   1.083       .  S
C918        C923   1.479       .  S
C918        C919   1.405       .  A
C919        C920   1.396       .  A
C919        H924   1.083       .  S
C920        C921   1.405       .  A
C920        H925   1.083       .  S
C921        C922   1.404       .  A
C922        H926   1.083       .  S
C923        C928   1.405       .  A
C923        C932   1.403       .  A
C928        C929   1.396       .  A
C928        H933   1.083       .  S
C929        C930   1.404       .  A
C929        H934   1.083       .  S
C930        C931   1.405       .  A
C931        C932   1.396       .  A
C931        H935   1.083       .  S
C932        H936   1.083       .  S
C937        C938   1.410       .  A
C937        C942   1.398       .  A
C937        H947   1.081       .  S
C938        C943   1.497       .  S
C938        C939   1.411       .  A
C939        C940   1.397       .  A
C939        H944   1.081       .  S
C940        C941   1.401       .  A
C940        H945   1.083       .  S
C941        C942   1.403       .  A
C942        H946   1.083       .  S
C943        C948   1.411       .  A
C943        C952   1.410       .  A
C948        C949   1.399       .  A
C948        H953   1.081       .  S
C949        C950   1.401       .  A
C949        H954   1.083       .  S
C950        C951   1.400       .  A
C951        C952   1.397       .  A
C951        H955   1.083       .  S
C952        H956   1.081       .  S
C957        C958   1.404       .  A
C957        C962   1.396       .  A
C957        H967   1.083       .  S
C958        C963   1.479       .  S
C958        C959   1.404       .  A
C959        C960   1.397       .  A
C959        H964   1.083       .  S
C960        C961   1.406       .  A
C960        H965   1.083       .  S
C961        C962   1.405       .  A
C962        H966   1.083       .  S
C963        C968   1.405       .  A
C963        C972   1.404       .  A
C968        C969   1.397       .  A
C968        H973   1.083       .  S
C969        C970   1.405       .  A
C969        H974   1.083       .  S
C970        C971   1.405       .  A
C971        C972   1.396       .  A
C971        H975   1.083       .  S
C972        H976   1.083       .  S
C977        C978   1.408       .  A
C977        C982   1.396       .  A
C977        H987   1.082       .  S
C978        C983   1.490       .  S
C978        C979   1.409       .  A
C979        C980   1.397       .  A
C979        H984   1.082       .  S
C980        C981   1.401       .  A
C980        H985   1.083       .  S
C981        C982   1.401       .  A
C982        H986   1.083       .  S
C983        C988   1.409       .  A
C983        C992   1.408       .  A
C988        C989   1.396       .  A
C988        H993   1.082       .  S
C989        C990   1.401       .  A
C989        H994   1.083       .  S
C990        C991   1.402       .  A
C991        C992   1.397       .  A
C991        H995   1.083       .  S
C992        H996   1.082       .  S
C997        C998   1.405       .  A
C997       C1002   1.397       .  A
C997       H1007   1.083       .  S
C998       C1003   1.482       .  S
C998        C999   1.405       .  A
C999       C1000   1.395       .  A
C999       H1004   1.083       .  S
C1000      C1001   1.403       .  A
C1000      H1005   1.083       .  S
C1001      C1002   1.406       .  A
C1002      H1006   1.083       .  S
C1003      C1008   1.405       .  A
C1003      C1012   1.405       .  A
C1008      C1009   1.397       .  A
C1008      H1013   1.083       .  S
C1009      C1010   1.405       .  A
C1009      H1014   1.083       .  S
C1010      C1011   1.404       .  A
C1011      C1012   1.395       .  A
C1011      H1015   1.083       .  S
C1012      H1016   1.083       .  S
C1017      C1018   1.405       .  A
C1017      C1022   1.397       .  A
C1017      H1027   1.083       .  S
C1018      C1023   1.485       .  S
C1018      C1019   1.406       .  A
C1019      C1020   1.398       .  A
C1019      H1024   1.083       .  S
C1020      C1021   1.405       .  A
C1020      H1025   1.083       .  S
C1021      C1022   1.405       .  A
C1022      H1026   1.083       .  S
C1023      C1028   1.406       .  A
C1023      C1032   1.405       .  A
C1028      C1029   1.398       .  A
C1028      H1033   1.083       .  S
C1029      C1030   1.405       .  A
C1029      H1034   1.083       .  S
C1030      C1031   1.405       .  A
C1031      C1032   1.397       .  A
C1031      H1035   1.083       .  S
C1032      H1036   1.083       .  S
C1037      C1038   1.409       .  A
C1037      C1042   1.398       .  A
C1037      H1047   1.082       .  S
C1038      C1043   1.492       .  S
C1038      C1039   1.409       .  A
C1039      C1040   1.397       .  A
C1039      H1044   1.082       .  S
C1040      C1041   1.400       .  A
C1040      H1045   1.084       .  S
C1041      C1042   1.401       .  A
C1042      H1046   1.083       .  S
C1043      C1048   1.409       .  A
C1043      C1052   1.408       .  A
C1048      C1049   1.398       .  A
C1048      H1053   1.082       .  S
C1049      C1050   1.402       .  A
C1049      H1054   1.083       .  S
C1050      C1051   1.403       .  A
C1051      C1052   1.396       .  A
C1051      H1055   1.083       .  S
C1052      H1056   1.082       .  S
C1057      C1058   1.406       .  A
C1057      C1062   1.397       .  A
C1057      H1067   1.083       .  S
C1058      C1063   1.485       .  S
C1058      C1059   1.405       .  A
C1059      C1060   1.397       .  A
C1059      H1064   1.083       .  S
C1060      C1061   1.405       .  A
C1060      H1065   1.083       .  S
C1061      C1062   1.405       .  A
C1062      H1066   1.083       .  S
C1063      C1068   1.405       .  A
C1063      C1072   1.406       .  A
C1068      C1069   1.398       .  A
C1068      H1073   1.083       .  S
C1069      C1070   1.406       .  A
C1069      H1074   1.083       .  S
C1070      C1071   1.404       .  A
C1071      C1072   1.397       .  A
C1071      H1075   1.083       .  S
C1072      H1076   1.083       .  S
C1077      C1078   1.410       .  A
C1077      C1082   1.399       .  A
C1077      H1087   1.082       .  S
C1078      C1083   1.497       .  S
C1078      C1079   1.409       .  A
C1079      C1080   1.398       .  A
C1079      H1084   1.082       .  S
C1080      C1081   1.403       .  A
C1080      H1085   1.083       .  S
C1081      C1082   1.402       .  A
C1082      H1086   1.083       .  S
C1083      C1088   1.409       .  A
C1083      C1092   1.410       .  A
C1088      C1089   1.397       .  A
C1088      H1093   1.082       .  S
C1089      C1090   1.402       .  A
C1089      H1094   1.083       .  S
C1090      C1091   1.403       .  A
C1091      C1092   1.400       .  A
C1091      H1095   1.083       .  S
C1092      H1096   1.082       .  S
C1097      C1098   1.410       .  A
C1097      C1102   1.397       .  A
C1097      H1107   1.081       .  S
C1098      C1103   1.494       .  S
C1098      C1099   1.411       .  A
C1099      C1100   1.397       .  A
C1099      H1104   1.081       .  S
C1100      C1101   1.400       .  A
C1100      H1105   1.083       .  S
C1101      C1102   1.400       .  A
C1102      H1106   1.083       .  S
C1103      C1108   1.410       .  A
C1103      C1112   1.409       .  A
C1108      C1109   1.398       .  A
C1108      H1113   1.081       .  S
C1109      C1110   1.402       .  A
C1109      H1114   1.083       .  S
C1110      C1111   1.402       .  A
C1111      C1112   1.396       .  A
C1111      H1115   1.083       .  S
C1112      H1116   1.081       .  S
C1117      C1118   1.405       .  A
C1117      C1122   1.396       .  A
C1117      H1127   1.083       .  S
C1118      C1123   1.479       .  S
C1118      C1119   1.404       .  A
C1119      C1120   1.394       .  A
C1119      H1124   1.083       .  S
C1120      C1121   1.404       .  A
C1120      H1125   1.083       .  S
C1121      C1122   1.404       .  A
C1122      H1126   1.083       .  S
C1123      C1128   1.404       .  A
C1123      C1132   1.405       .  A
C1128      C1129   1.396       .  A
C1128      H1133   1.083       .  S
C1129      C1130   1.405       .  A
C1129      H1134   1.083       .  S
C1130      C1131   1.404       .  A
C1131      C1132   1.395       .  A
C1131      H1135   1.083       .  S
C1132      H1136   1.083       .  S
C1137      C1138   1.404       .  A
C1137      C1142   1.395       .  A
C1137      H1147   1.083       .  S
C1138      C1143   1.479       .  S
C1138      C1139   1.405       .  A
C1139      C1140   1.396       .  A
C1139      H1144   1.083       .  S
C1140      C1141   1.404       .  A
C1140      H1145   1.083       .  S
C1141      C1142   1.405       .  A
C1142      H1146   1.083       .  S
C1143      C1148   1.405       .  A
C1143      C1152   1.404       .  A
C1148      C1149   1.395       .  A
C1148      H1153   1.083       .  S
C1149      C1150   1.404       .  A
C1149      H1154   1.083       .  S
C1150      C1151   1.405       .  A
C1151      C1152   1.395       .  A
C1151      H1155   1.083       .  S
C1152      H1156   1.083       .  S
C1157      C1158   1.405       .  A
C1157      C1162   1.396       .  A
C1157      H1167   1.083       .  S
C1158      C1163   1.478       .  S
C1158      C1159   1.403       .  A
C1159      C1160   1.396       .  A
C1159      H1164   1.083       .  S
C1160      C1161   1.405       .  A
C1160      H1165   1.083       .  S
C1161      C1162   1.404       .  A
C1162      H1166   1.083       .  S
C1163      C1168   1.405       .  A
C1163      C1172   1.403       .  A
C1168      C1169   1.398       .  A
C1168      H1173   1.083       .  S
C1169      C1170   1.405       .  A
C1169      H1174   1.083       .  S
C1170      C1171   1.405       .  A
C1171      C1172   1.394       .  A
C1171      H1175   1.083       .  S
C1172      H1176   1.083       .  S
C1177      C1178   1.406       .  A
C1177      C1182   1.397       .  A
C1177      H1187   1.083   1_556  S
C1178      C1183   1.481   1_556  S
C1178      C1179   1.404       .  A
C1179      C1180   1.396       .  A
C1179      H1184   1.083       .  S
C1180      C1181   1.405       .  A
C1180      H1185   1.083       .  S
C1181      C1182   1.404       .  A
C1182      H1186   1.083       .  S
C1183      C1188   1.406       .  A
C1183      C1192   1.404       .  A
C1188      C1189   1.397       .  A
C1188      H1193   1.083       .  S
C1189      C1190   1.404       .  A
C1189      H1194   1.083       .  S
C1190      C1191   1.406       .  A
C1191      C1192   1.396       .  A
C1191      H1195   1.083       .  S
C1192      H1196   1.083       .  S
C1197      C1198   1.404       .  A
C1197      C1202   1.395       .  A
C1197      H1207   1.083       .  S
C1198      C1203   1.478       .  S
C1198      C1199   1.404       .  A
C1199      C1200   1.395       .  A
C1199      H1204   1.083       .  S
C1200      C1201   1.405       .  A
C1200      H1205   1.083       .  S
C1201      C1202   1.404       .  A
C1202      H1206   1.083       .  S
C1203      C1208   1.405       .  A
C1203      C1212   1.404       .  A
C1208      C1209   1.395       .  A
C1208      H1213   1.083       .  S
C1209      C1210   1.404       .  A
C1209      H1214   1.083       .  S
C1210      C1211   1.405       .  A
C1211      C1212   1.395       .  A
C1211      H1215   1.083       .  S
C1212      H1216   1.083       .  S
C1217      C1218   1.405       .  A
C1217      C1222   1.398       .  A
C1217      H1227   1.083       .  S
C1218      C1223   1.483       .  S
C1218      C1219   1.405       .  A
C1219      C1220   1.397       .  A
C1219      H1224   1.083       .  S
C1220      C1221   1.404       .  A
C1220      H1225   1.083       .  S
C1221      C1222   1.406       .  A
C1222      H1226   1.083       .  S
C1223      C1228   1.405       .  A
C1223      C1232   1.405       .  A
C1228      C1229   1.396       .  A
C1228      H1233   1.083       .  S
C1229      C1230   1.404       .  A
C1229      H1234   1.083       .  S
C1230      C1231   1.406       .  A
C1231      C1232   1.399       .  A
C1231      H1235   1.083       .  S
C1232      H1236   1.083       .  S
C1237      C1238   1.404       .  A
C1237      C1242   1.395       .  A
C1237      H1247   1.083       .  S
C1238      C1243   1.479       .  S
C1238      C1239   1.405       .  A
C1239      C1240   1.397       .  A
C1239      H1244   1.083       .  S
C1240      C1241   1.404       .  A
C1240      H1245   1.083       .  S
C1241      C1242   1.405       .  A
C1242      H1246   1.083       .  S
C1243      C1248   1.405       .  A
C1243      C1252   1.404       .  A
C1248      C1249   1.396       .  A
C1248      H1253   1.083       .  S
C1249      C1250   1.405       .  A
C1249      H1254   1.083       .  S
C1250      C1251   1.405       .  A
C1251      C1252   1.396       .  A
C1251      H1255   1.083       .  S
C1252      H1256   1.083       .  S
C1257      C1258   1.404       .  A
C1257      C1262   1.396       .  A
C1257      H1267   1.083   1_556  S
C1258      C1263   1.482   1_556  S
C1258      C1259   1.406       .  A
C1259      C1260   1.397       .  A
C1259      H1264   1.083       .  S
C1260      C1261   1.404       .  A
C1260      H1265   1.083       .  S
C1261      C1262   1.406       .  A
C1262      H1266   1.083       .  S
C1263      C1268   1.406       .  A
C1263      C1272   1.404       .  A
C1268      C1269   1.398       .  A
C1268      H1273   1.083       .  S
C1269      C1270   1.405       .  A
C1269      H1274   1.083       .  S
C1270      C1271   1.405       .  A
C1271      C1272   1.395       .  A
C1271      H1275   1.083       .  S
C1272      H1276   1.083       .  S
C1277      C1278   1.407       .  A
C1277      C1282   1.400       .  A
C1277      H1287   1.083       .  S
C1278      C1283   1.486       .  S
C1278      C1279   1.404       .  A
C1279      C1280   1.396       .  A
C1279      H1284   1.083       .  S
C1280      C1281   1.405       .  A
C1280      H1285   1.083       .  S
C1281      C1282   1.405       .  A
C1282      H1286   1.083       .  S
C1283      C1288   1.406       .  A
C1283      C1292   1.405       .  A
C1288      C1289   1.396       .  A
C1288      H1293   1.083       .  S
C1289      C1290   1.404       .  A
C1289      H1294   1.083       .  S
C1290      C1291   1.406       .  A
C1291      C1292   1.399       .  A
C1291      H1295   1.083       .  S
C1292      H1296   1.083       .  S
