geometry optimzed in LAMMPS
_audit_creation_date              2020-12-01 
_audit_creation_method            'lammps2cif' 
_symmetry_space_group_name_H-M    'P1' 
_symmetry_Int_Tables_number       1 
_symmetry_cell_setting            triclinic 
loop_ 
_symmetry_equiv_pos_as_xyz 
  x,y,z 
_cell_length_a                    59.78005861 
_cell_length_b                    59.96773489774742 
_cell_length_c                    47.38387718329366 
_cell_angle_alpha                 90.05764790938021 
_cell_angle_beta                  90.02296583225672 
_cell_angle_gamma                 120.71356001885306 
loop_ 
_atom_site_label 
_atom_site_type_symbol 
_atom_site_fract_x 
_atom_site_fract_y 
_atom_site_fract_z 
_atom_site_charge 
O1          O  0.64288406  0.10754366  0.12397427    -0.57300
C2          C  0.71683066  0.15739894  0.05312882     0.75300
O3          O  0.71077342  0.12712735  0.13951838    -0.58400
C4          C  0.63567395  0.12142322  0.11131313     0.75300
C5          C  0.66827719  0.07580970  0.06711768     0.77700
Cd6        Cd  0.68393486  0.12390922  0.09683760     1.37500
O7          O  0.69634660  0.15710959  0.06068178    -0.57300
O8          O  0.67470775  0.07762082  0.09297927    -0.56100
C9          C  0.71879587  0.15102051  0.14350557     0.77700
O10         O  0.66921093  0.09556982  0.05659665    -0.58500
O11         O  0.72229891  0.14235698  0.06620601    -0.56900
O12         O  0.65044448  0.13569919  0.09180234    -0.56900
O13         O  0.71007417  0.16107355  0.12670546    -0.56100
O14         O  0.51584108  0.85471428  0.42986449    -0.57300
C15         C  0.55717999  0.83109307  0.46270547     0.75300
O16         O  0.59164023  0.86466331  0.38723574    -0.58400
C17         C  0.51506273  0.87156764  0.41451989     0.75300
C18         C  0.59395477  0.91899338  0.44949217     0.77700
Cd19       Cd  0.56195738  0.86910375  0.42195826     1.37500
O20         O  0.53770564  0.83240335  0.45452941    -0.57300
O21         O  0.58195305  0.89769024  0.46251015    -0.56100
C22         C  0.57339732  0.84825374  0.37162659     0.77700
O23         O  0.59266669  0.91749353  0.42276805    -0.58500
O24         O  0.57883815  0.84732096  0.45183132    -0.56900
O25         O  0.53608730  0.88732126  0.40210563    -0.56900
O26         O  0.55088218  0.84352266  0.37805876    -0.56100
O27         O  0.45132393  0.16284989  0.20455939    -0.57300
C28         C  0.47153550  0.12292681  0.15933807     0.75300
O29         O  0.39127676  0.08038677  0.17702972    -0.58400
C30         C  0.43380594  0.16852804  0.20797948     0.75300
C31         C  0.41467971  0.14608552  0.11970824     0.77700
Cd32       Cd  0.42623260  0.12709620  0.17121303     1.37500
O33         O  0.47276275  0.14163752  0.17306602    -0.57300
O34         O  0.43718994  0.15148602  0.12713910    -0.56100
C35         C  0.39371047  0.08004409  0.20361458     0.77700
O36         O  0.39622058  0.12980099  0.13517855    -0.58500
O37         O  0.44910794  0.10587678  0.15075201    -0.56900
O38         O  0.41275161  0.15473354  0.19466709    -0.56900
O39         O  0.41014139  0.10139076  0.21475434    -0.56100
O40         O  0.34253470  0.88456631  0.37416299    -0.57300
C41         C  0.27684578  0.83691129  0.29542113     0.75300
O42         O  0.27728434  0.86132978  0.38855949    -0.58400
C43         C  0.34828071  0.86757485  0.36784791     0.75300
C44         C  0.32035407  0.91568710  0.31876290     0.77700
Cd45       Cd  0.30248803  0.86581650  0.34481541     1.37500
O46         O  0.29736187  0.83795311  0.30440801    -0.57300
O47         O  0.32913597  0.90100970  0.31306956    -0.56100
C48         C  0.26181640  0.83709575  0.38558315     0.77700
O49         O  0.30329330  0.90785136  0.33813588    -0.58500
O50         O  0.26884734  0.84961430  0.30912582    -0.56900
O51         O  0.33231939  0.84943189  0.35187970    -0.56900
O52         O  0.26523842  0.82689208  0.36397096    -0.56100
O53         O  0.29589194  0.46607885  0.28244085    -0.59700
C54         C  0.35131037  0.48595140  0.23235695     0.75300
O55         O  0.31562345  0.40566271  0.25017586    -0.58400
C56         C  0.27410993  0.44724040  0.29020276     0.75300
C57         C  0.26777304  0.42418926  0.19976635     0.77700
Cd58       Cd  0.30352380  0.43990216  0.24759177     1.37500
O59         O  0.33366590  0.48679452  0.24631116    -0.57300
O60         O  0.26231671  0.41028884  0.22162050    -0.56100
C61         C  0.32092392  0.40875356  0.27633017     0.77700
O62         O  0.29030849  0.44409720  0.19926270    -0.58500
O63         O  0.34662441  0.46360804  0.22513078    -0.56900
O64         O  0.26609336  0.42600996  0.27732386    -0.56900
O65         O  0.31776341  0.42563875  0.28853531    -0.56100
O66         O  0.46218242  0.30127736  0.37560840    -0.57300
C67         C  0.48752861  0.35856556  0.43184015     0.75300
O68         O  0.40058668  0.31525659  0.40485320    -0.58400
C69         C  0.44129880  0.28354760  0.36452837     0.75300
C70         C  0.42503730  0.27410804  0.45719220     0.77700
Cd71       Cd  0.44044286  0.31230088  0.41228543     1.37500
O72         O  0.48795268  0.34344616  0.41348571    -0.57300
O73         O  0.44021844  0.27666603  0.43730763    -0.56100
C74         C  0.40982278  0.33054750  0.38395932     0.77700
O75         O  0.41629069  0.28944349  0.45670291    -0.58500
O76         O  0.46530787  0.35197201  0.44174217    -0.56900
O77         O  0.42024511  0.27888950  0.37604317    -0.56900
O78         O  0.43308935  0.33790290  0.37751356    -0.56100
O79         O  0.69980460  0.53216387  0.05007446    -0.57300
C80         C  0.65216887  0.52475823  0.48804808     0.75300
O81         O  0.66828600  0.56408745  0.04878286    -0.58400
C82         C  0.72140999  0.55242116  0.05563894     0.75300
C83         C  0.73528932  0.58282770  0.45385950     0.77700
Cd84       Cd  0.68850121  0.55245496  0.01151239     1.37500
O85         O  0.65294020  0.50698208  0.01372283    -0.57300
O86         O  0.73577518  0.60105637  0.46798097    -0.56100
C87         C  0.67534205  0.58689158  0.04103298     0.77700
O88         O  0.71836850  0.56010210  0.46125829    -0.58500
O89         O  0.65884250  0.54671202  0.47750355    -0.56900
O90         O  0.72756363  0.57205246  0.04041738    -0.56900
O91         O  0.68802977  0.59417298  0.01803640    -0.56100
O92         O  0.54462545  0.71566023  0.14484482    -0.57300
C93         C  0.51853818  0.65142509  0.18586540     0.75300
O94         O  0.57689924  0.67300398  0.13880051    -0.58400
C95         C  0.56353625  0.72878322  0.12829209     0.75300
C96         C  0.58081973  0.73223899  0.22157270     0.77700
Cd97       Cd  0.56724511  0.69772846  0.17275249     1.37500
O98         O  0.51982414  0.66795747  0.16828884    -0.57300
O99         O  0.56410216  0.70831292  0.22271675    -0.56100
C100        C  0.59811425  0.67687372  0.14901648     0.77700
O101        O  0.59326682  0.73990222  0.19862146    -0.58500
O102        O  0.53980989  0.65644048  0.19720618    -0.56900
O103        O  0.58353097  0.72711532  0.13233726    -0.56900
O104        O  0.60552276  0.69023543  0.17154489    -0.56100
O105        O  0.81875753  0.29632037  0.35851721    -0.57300
C106        C  0.86085521  0.35681245  0.31728951     0.75300
O107        O  0.89298453  0.30196841  0.35791766    -0.58400
C108        C  0.82607528  0.29399608  0.38285334     0.75300
C109        C  0.83835688  0.26957421  0.29469821     0.77700
Cd110      Cd  0.86091532  0.31117546  0.33599510     1.37500
O111        O  0.85730817  0.34977597  0.34285015    -0.57300
O112        O  0.83192249  0.26612021  0.32039887    -0.56100
C113        C  0.91199081  0.32496627  0.35635517     0.77700
O114        O  0.85662596  0.29206596  0.28823202    -0.58500
O115        O  0.86421134  0.34250381  0.30027166    -0.56900
O116        O  0.84981077  0.30088928  0.38553284    -0.56900
O117        O  0.90775278  0.34081649  0.34332909    -0.56100
O118        O  0.15686135  0.45409843  0.45938742    -0.57300
C119        C  0.12741314  0.48264362  0.01448235     0.75300
O120        O  0.08024054  0.39296005  0.49287282    -0.58400
C121        C  0.16554021  0.43903416  0.45537059     0.75300
C122        C  0.14733579  0.42405549  0.05149338     0.77700
Cd123      Cd  0.12547717  0.43449664  0.00180491     1.37500
O124        O  0.14083490  0.48096927  0.99486505    -0.57300
O125        O  0.15416596  0.44642931  0.04250007    -0.56100
C126        C  0.07829853  0.39700009  0.46696676     0.77700
O127        O  0.12904280  0.40536523  0.03794722    -0.58500
O128        O  0.11228184  0.46179319  0.02741080    -0.56900
O129        O  0.15689913  0.41956135  0.47154409    -0.56900
O130        O  0.09853576  0.41511199  0.45559742    -0.56100
O131        O  0.17173958  0.70754834  0.12288947    -0.57300
C132        C  0.13948814  0.65140686  0.06761627     0.75300
O133        O  0.10625209  0.67390927  0.11752192    -0.58400
C134        C  0.17338823  0.72873834  0.12981212     0.75300
C135        C  0.16519591  0.73098640  0.03522227     0.77700
Cd136      Cd  0.14105786  0.69839561  0.08405954     1.37500
O137        O  0.12276219  0.65675933  0.05881456    -0.57300
O138        O  0.17784441  0.72878454  0.05527989    -0.56100
C139        C  0.09172990  0.68279224  0.11130870     0.77700
O140        O  0.14061299  0.71823845  0.03770151    -0.58500
O141        O  0.15689952  0.66788543  0.08385483    -0.56900
O142        O  0.16024006  0.73572800  0.11529885    -0.56900
O143        O  0.09954118  0.69907821  0.09124784    -0.56100
O144        O  0.85806037  0.52835334  0.25416254    -0.57300
C145        C  0.83844571  0.56749395  0.21663565     0.75300
O146        O  0.87322299  0.60379526  0.29147003    -0.58400
C147        C  0.87627992  0.52705332  0.26604575     0.75300
C148        C  0.92653212  0.60740934  0.22578989     0.77700
Cd149      Cd  0.87799322  0.57511028  0.25636730     1.37500
O150        O  0.84488704  0.55078867  0.22124395    -0.57300
O151        O  0.90558875  0.59060138  0.21428275    -0.56100
C152        C  0.85990825  0.58567269  0.30880811     0.77700
O153        O  0.92545656  0.61000881  0.25226110    -0.58500
O154        O  0.84982643  0.58799962  0.23137738    -0.56900
O155        O  0.89578617  0.54842735  0.27386341    -0.56900
O156        O  0.85723673  0.56392585  0.30287096    -0.56100
C157        C  0.03074036  0.67868455  0.14286226    -0.27100
C158        C  0.02159054  0.65662773  0.16008103     0.02500
C159        C  0.03517245  0.64322328  0.16050794     0.30600
C160        C  0.05756325  0.65187895  0.14415329    -0.18900
C161        C  0.06712953  0.67409563  0.12713601    -0.28300
C162        C  0.05344536  0.68756232  0.12655401     0.44600
C163        C  0.99751575  0.64696917  0.17710803     0.05800
O164        O  0.02610087  0.62100135  0.17614348    -0.56800
H165        H  0.06747622  0.64099194  0.14485010     0.18800
O166        O  0.06257740  0.70989060  0.11112741    -0.63500
H167        H  0.02043813  0.68919623  0.14235445     0.17200
C168        C  0.99837866  0.64715035  0.20682355     0.29500
C169        C  0.97518641  0.63516234  0.22254001    -0.24400
C170        C  0.95084522  0.62245828  0.20899411    -0.23700
C171        C  0.95013238  0.62316103  0.17915378     0.40900
C172        C  0.97330727  0.63533336  0.16354578    -0.26100
O173        O  0.02187545  0.65916564  0.22060862    -0.58000
H174        H  0.97630747  0.63510305  0.24535491     0.16500
O175        O  0.92688858  0.61148139  0.16490298    -0.59500
H176        H  0.97235959  0.63496030  0.14069714     0.15000
H177        H  0.05294880  0.70435972  0.09299816     0.46900
H178        H  0.02352808  0.64500472  0.22917474     0.42200
H179        H  0.92318831  0.62554946  0.16115230     0.45700
H180        H  0.03838881  0.62577352  0.19213952     0.37200
C181        C  0.12333767  0.53525269  0.05492799    -0.27100
C182        C  0.13403777  0.55570783  0.03548491     0.02500
C183        C  0.14275514  0.55220499  0.00919927     0.30600
C184        C  0.14078549  0.52843939  0.00273632    -0.18900
C185        C  0.12953593  0.50767848  0.02195032    -0.28300
C186        C  0.12094851  0.51137641  0.04834167     0.44600
C187        C  0.13598250  0.58058147  0.04305805     0.05800
O188        O  0.15734457  0.56578546  0.51233898    -0.56800
H189        H  0.15596998  0.52248714  0.50177078     0.18800
O190        O  0.11032689  0.49187761  0.06797971    -0.63500
H191        H  0.11661144  0.53776668  0.07526069     0.17200
C192        C  0.12212223  0.58982904  0.02789285     0.29500
C193        C  0.12358576  0.61297852  0.03599531    -0.24400
C194        C  0.13865961  0.62718830  0.05933663    -0.23700
C195        C  0.15239779  0.61776014  0.07463983     0.40900
C196        C  0.15096082  0.59463099  0.06643956    -0.26100
O197        O  0.10672201  0.57615343  0.00541626    -0.58000
H198        H  0.11279444  0.61977042  0.02399820     0.16500
O199        O  0.16701978  0.63075197  0.09784232    -0.59500
H200        H  0.16150292  0.58755213  0.07844582     0.15000
H201        H  0.12518898  0.49441220  0.07972852     0.46900
H202        H  0.09008414  0.56257154  0.01384948     0.42200
H203        H  0.15493271  0.62345599  0.11408472     0.45700
H204        H  0.14088674  0.56742560  0.97494812     0.37200
C205        C  0.85152727  0.45471149  0.26661231    -0.27100
C206        C  0.87014088  0.45380227  0.28374772     0.02500
C207        C  0.89177538  0.47711439  0.29323873     0.30600
C208        C  0.89382145  0.50087750  0.28686318    -0.18900
C209        C  0.87457164  0.50182511  0.27083002    -0.28300
C210        C  0.85367761  0.47844653  0.25993558     0.44600
C211        C  0.86652087  0.42842998  0.29220025     0.05800
O212        O  0.91136447  0.47680657  0.30802738    -0.56800
H213        H  0.91039931  0.51856362  0.29479562     0.18800
O214        O  0.83501448  0.47842974  0.24306898    -0.63500
H215        H  0.83500384  0.43690079  0.25880532     0.17200
C216        C  0.86479981  0.42171223  0.32089027     0.29500
C217        C  0.86253641  0.39818492  0.32867885    -0.24400
C218        C  0.86162365  0.38080323  0.30815362    -0.23700
C219        C  0.86215091  0.38705724  0.27934265     0.40900
C220        C  0.86449263  0.41069691  0.27158426    -0.26100
O221        O  0.86530705  0.43803778  0.34151094    -0.58000
H222        H  0.86179955  0.39370721  0.35092532     0.16500
O223        O  0.86002050  0.37011640  0.25858990    -0.59500
H224        H  0.86520114  0.41540981  0.24940857     0.15000
H225        H  0.84195848  0.48081039  0.22360104     0.46900
H226        H  0.84716664  0.43433704  0.34282408     0.42200
H227        H  0.87816370  0.37578202  0.25311779     0.45700
H228        H  0.91034811  0.48237983  0.32744629     0.37200
C229        C  0.00662635  0.35548898  0.44728222    -0.27100
C230        C  0.00777999  0.35839135  0.41781601     0.02500
C231        C  0.03225648  0.37217659  0.40461109     0.30600
C232        C  0.05495490  0.38400167  0.42087745    -0.18900
C233        C  0.05388426  0.38205178  0.45048963    -0.28300
C234        C  0.02942389  0.36714556  0.46361479     0.44600
C235        C  0.98354997  0.34905634  0.40117955     0.05800
O236        O  0.03419153  0.37478091  0.37579914    -0.56800
H237        H  0.07349738  0.39507914  0.41021932     0.18800
O238        O  0.02438226  0.38058777  0.00103889    -0.63500
H239        H  0.98795264  0.34508971  0.45779717     0.17200
C240        C  0.96304397  0.32308749  0.40223973     0.29500
C241        C  0.94023284  0.31524937  0.38666849    -0.24400
C242        C  0.93730244  0.33311738  0.37019630    -0.23700
C243        C  0.95802716  0.35908899  0.36905702     0.40900
C244        C  0.98077970  0.36679957  0.38447361    -0.26100
O245        O  0.96537255  0.30514650  0.41790190    -0.58000
H246        H  0.92460241  0.29521827  0.38798885     0.16500
O247        O  0.95597436  0.37740165  0.35381950    -0.59500
H248        H  0.99621171  0.38695947  0.38380245     0.15000
H249        H  0.02398054  0.39683392  0.99916408     0.46900
H250        H  0.95443990  0.30203976  0.43483781     0.42200
H251        H  0.96512861  0.37904015  0.33580379     0.45700
H252        H  0.03045916  0.35769446  0.36855755     0.37200
C253        C  0.79191037  0.57551976  0.16910654    -0.27100
C254        C  0.78633313  0.55651953  0.14847950     0.02500
C255        C  0.79711209  0.54054399  0.15110592     0.30600
C256        C  0.81331485  0.54387593  0.17400516    -0.18900
C257        C  0.81941499  0.56329694  0.19430499    -0.28300
C258        C  0.80831570  0.57902949  0.19183990     0.44600
C259        C  0.77018905  0.55462336  0.12383779     0.05800
O260        O  0.79347863  0.52297986  0.13038700    -0.56800
H261        H  0.82190227  0.53177488  0.17523568     0.18800
O262        O  0.81370454  0.59820295  0.21112899    -0.63500
H263        H  0.78367239  0.58790535  0.16740509     0.17200
C264        C  0.74755189  0.53117481  0.11641951     0.29500
C265        C  0.73207077  0.53058451  0.09389250    -0.24400
C266        C  0.73853064  0.55327207  0.07877763    -0.23700
C267        C  0.76115039  0.57673016  0.08644373     0.40900
C268        C  0.77677808  0.57716903  0.10858593    -0.26100
O269        O  0.73993460  0.50890119  0.13148625    -0.58000
H270        H  0.71470690  0.51239002  0.08858415     0.16500
O271        O  0.76765273  0.59963701  0.07331702    -0.59500
H272        H  0.79400005  0.59539630  0.11418584     0.15000
H273        H  0.80005804  0.58981806  0.22579383     0.46900
H274        H  0.73247407  0.51103007  0.14926120     0.42200
H275        H  0.78078001  0.60216416  0.05893394     0.45700
H276        H  0.78305713  0.50565207  0.13925319     0.37200
C277        C  0.81543104  0.56980601  0.37218010    -0.27100
C278        C  0.81156315  0.59101946  0.37253815     0.02500
C279        C  0.82677079  0.61218096  0.35451943     0.30600
C280        C  0.84402174  0.61106315  0.33527174    -0.18900
C281        C  0.84628677  0.58889669  0.33335010    -0.28300
C282        C  0.83242846  0.56852969  0.35280528     0.44600
C283        C  0.79119475  0.59034109  0.39133176     0.05800
O284        O  0.82414241  0.63359589  0.35463288    -0.56800
H285        H  0.85456550  0.62704232  0.32075464     0.18800
O286        O  0.83506187  0.54709600  0.35290653    -0.63500
H287        H  0.80477256  0.55380558  0.38664634     0.17200
C288        C  0.76576286  0.56854807  0.39162888     0.29500
C289        C  0.74748890  0.56703928  0.41122404    -0.24400
C290        C  0.75386433  0.58713172  0.43067297    -0.23700
C291        C  0.77877266  0.60965612  0.42920047     0.40900
C292        C  0.79725788  0.61099687  0.40986601    -0.26100
O293        O  0.75846075  0.54880946  0.37246659    -0.58000
H294        H  0.72832140  0.54975656  0.41152038     0.16500
O295        O  0.78588468  0.62972392  0.44778544    -0.59500
H296        H  0.81668360  0.62789104  0.41006483     0.15000
H297        H  0.81956554  0.53345327  0.34275617     0.46900
H298        H  0.75620314  0.53377412  0.38355352     0.42200
H299        H  0.78488150  0.64328150  0.43683648     0.45700
H300        H  0.80916681  0.62909734  0.34204488     0.37200
C301        C  0.64644101  0.65443060  0.13254337    -0.27100
C302        C  0.63992202  0.64612206  0.10435979     0.02500
C303        C  0.61980733  0.64803843  0.09135737     0.30600
C304        C  0.60662940  0.65801940  0.10631463    -0.18900
C305        C  0.61313386  0.66657483  0.13440566    -0.28300
C306        C  0.63341202  0.66480872  0.14747901     0.44600
C307        C  0.65230427  0.63325977  0.08936915     0.05800
O308        O  0.61175081  0.63864475  0.06455272    -0.56800
H309        H  0.59104188  0.65891838  0.09573218     0.18800
O310        O  0.63984529  0.67199704  0.17513791    -0.63500
H311        H  0.66154802  0.65265752  0.14307853     0.17200
C312        C  0.66423004  0.64181386  0.06270216     0.29500
C313        C  0.67223754  0.62701759  0.04732326    -0.24400
C314        C  0.66880693  0.60367313  0.05825811    -0.23700
C315        C  0.65861460  0.59625914  0.08586761     0.40900
C316        C  0.65037539  0.61087133  0.10098241    -0.26100
O317        O  0.66769082  0.66434742  0.05121953    -0.58000
H318        H  0.68060713  0.63354491  0.02655180     0.16500
O319        O  0.65601380  0.57437477  0.09819626    -0.59500
H320        H  0.64159218  0.60414530  0.12156336     0.15000
H321        H  0.65602836  0.68922158  0.17446640     0.46900
H322        H  0.68313549  0.67845835  0.06094777     0.42200
H323        H  0.69066471  0.60692069  0.59984107     0.45700
H324        H  0.61731644  0.65417416  0.05254670     0.37200
C325        C  0.58392366  0.47844902  0.45898219    -0.27100
C326        C  0.58035964  0.45423219  0.46662180     0.02500
C327        C  0.60011571  0.45338407  0.48185568     0.30600
C328        C  0.62310390  0.47641264  0.48893707    -0.18900
C329        C  0.62710814  0.50075021  0.48078161    -0.28300
C330        C  0.60712459  0.50155728  0.46566274     0.44600
C331        C  0.55646182  0.42986362  0.45782236     0.05800
O332        O  0.57152697  0.41800881  0.01079811    -0.56800
H333        H  0.61561487  0.46087173  0.01863913     0.18800
O334        O  0.60983395  0.52479139  0.45767831    -0.63500
H335        H  0.56887390  0.47941706  0.44726512     0.17200
C336        C  0.53182824  0.42296964  0.46862491     0.29500
C337        C  0.50971918  0.39951271  0.46048493    -0.24400
C338        C  0.51154097  0.38281015  0.44094027    -0.23700
C339        C  0.53630766  0.38999519  0.42990187     0.40900
C340        C  0.55841974  0.41320859  0.43848660    -0.26100
O341        O  0.52927394  0.43871965  0.48772871    -0.58000
H342        H  0.49102907  0.39455782  0.46932005     0.16500
O343        O  0.53917248  0.37482019  0.41026338    -0.59500
H344        H  0.57722384  0.41838164  0.42978454     0.15000
H345        H  0.61438516  0.52659824  0.43735472     0.46900
H346        H  0.52298816  0.44842879  0.47659780     0.42200
H347        H  0.54300384  0.36314857  0.42131997     0.45700
H348        H  0.56612889  0.42050205  0.02975694     0.37200
C349        C  0.20382129  0.46254604  0.38718876    -0.27100
C350        C  0.21633149  0.44822592  0.38675734     0.02500
C351        C  0.21352972  0.43213186  0.40967526     0.30600
C352        C  0.19751494  0.42983691  0.43236064    -0.18900
C353        C  0.18413496  0.44347202  0.43245418    -0.28300
C354        C  0.18769287  0.46019704  0.40972425     0.44600
C355        C  0.23071200  0.44875408  0.36136114     0.05800
O356        O  0.22661351  0.41884622  0.41013630    -0.56800
H357        H  0.19530842  0.41711393  0.44971047     0.18800
O358        O  0.17491074  0.47375308  0.40884385    -0.63500
H359        H  0.20583938  0.47488543  0.36950174     0.17200
C360        C  0.22076874  0.42680395  0.34389992     0.29500
C361        C  0.23480888  0.42703817  0.32035060    -0.24400
C362        C  0.25887300  0.44907502  0.31367020    -0.23700
C363        C  0.26836566  0.47148907  0.33065721     0.40900
C364        C  0.25413274  0.47123032  0.35426698    -0.26100
O365        O  0.19742619  0.40490028  0.34989423    -0.58000
H366        H  0.22692918  0.40964806  0.30755374     0.16500
O367        O  0.29153346  0.49357631  0.32465005    -0.59500
H368        H  0.26164481  0.48837361  0.36742596     0.15000
H369        H  0.15936705  0.46319823  0.39686134     0.46900
H370        H  0.18425104  0.40682919  0.33919357     0.42200
H371        H  0.30477142  0.49218979  0.33589378     0.45700
H372        H  0.21388634  0.40111151  0.40347184     0.37200
C373        C  0.20400308  0.39826541  0.15918946    -0.27100
C374        C  0.21237198  0.41463446  0.13554228     0.02500
C375        C  0.23924818  0.43178034  0.13160883     0.30600
C376        C  0.25707075  0.43376559  0.15204903    -0.18900
C377        C  0.24871715  0.41853888  0.17661409    -0.28300
C378        C  0.22193397  0.39995337  0.17953775     0.44600
C379        C  0.19324709  0.41557264  0.11619804     0.05800
O380        O  0.24826628  0.44739091  0.10821962    -0.56800
H381        H  0.27750133  0.44788264  0.14898049     0.18800
O382        O  0.21280577  0.38437786  0.20291931    -0.63500
H383        H  0.18342375  0.38490720  0.16250472     0.17200
C384        C  0.17477120  0.39374352  0.10081464     0.29500
C385        C  0.15892262  0.39630739  0.08064234    -0.24400
C386        C  0.16111657  0.42048829  0.07567919    -0.23700
C387        C  0.17855739  0.44188773  0.09247644     0.40900
C388        C  0.19429924  0.43926933  0.11242885    -0.26100
O389        O  0.17327120  0.37029256  0.10400130    -0.58000
H390        H  0.14568766  0.37958840  0.06808564     0.16500
O391        O  0.18049838  0.46558073  0.08955843    -0.59500
H392        H  0.20789132  0.45608570  0.12466692     0.15000
H393        H  0.21428691  0.36904900  0.19828919     0.46900
H394        H  0.15752099  0.35969072  0.11561723     0.42200
H395        H  0.19635865  0.47613790  0.07807799     0.45700
H396        H  0.24801914  0.43604454  0.09284656     0.37200
C397        C  0.44710356  0.59808110  0.18632837    -0.27100
C398        C  0.44728095  0.58077664  0.20606914     0.02500
C399        C  0.47073798  0.58695444  0.21947969     0.30600
C400        C  0.49369556  0.61002343  0.21275879    -0.18900
C401        C  0.49369577  0.62740554  0.19282510    -0.28300
C402        C  0.46997030  0.62130844  0.17979071     0.44600
C403        C  0.42278241  0.55648479  0.21273236     0.05800
O404        O  0.47136513  0.57059712  0.23926671    -0.56800
H405        H  0.51155258  0.61428404  0.22326798     0.18800
O406        O  0.46889950  0.63760690  0.16026995    -0.63500
H407        H  0.42913630  0.59348692  0.17582595     0.17200
C408        C  0.40163920  0.55724183  0.22459455     0.29500
C409        C  0.37865067  0.53415294  0.23099250    -0.24400
C410        C  0.37600773  0.50994254  0.22507803    -0.23700
C411        C  0.39710643  0.50924268  0.21258766     0.40900
C412        C  0.42036568  0.53241659  0.20686841    -0.26100
O413        O  0.40359456  0.58051279  0.23084456    -0.58000
H414        H  0.36278875  0.53528229  0.24052352     0.16500
O415        O  0.39545321  0.48611240  0.20631866    -0.59500
H416        H  0.43647733  0.53162286  0.19749360     0.15000
H417        H  0.46282115  0.64779007  0.17087186     0.46900
H418        H  0.39471429  0.58378786  0.21504945     0.42200
H419        H  0.38979194  0.48259461  0.18633018     0.45700
H420        H  0.47108134  0.57819921  0.25778480     0.37200
C421        C  0.34522613  0.38345410  0.33539567    -0.27100
C422        C  0.35360106  0.36897223  0.32026246     0.02500
C423        C  0.34981037  0.36632610  0.29084582     0.30600
C424        C  0.33838459  0.37867550  0.27688341    -0.18900
C425        C  0.33087556  0.39404525  0.29184161    -0.28300
C426        C  0.33397266  0.39592770  0.32152515     0.44600
C427        C  0.36740536  0.35789125  0.33542021     0.05800
O428        O  0.35676483  0.35128626  0.27570974    -0.56800
H429        H  0.33593733  0.37664645  0.25419551     0.18800
O430        O  0.32664985  0.41036674  0.33723647    -0.63500
H431        H  0.34802796  0.38563135  0.35805161     0.17200
C432        C  0.39369679  0.36666417  0.32964272     0.29500
C433        C  0.40705626  0.35747887  0.34552185    -0.24400
C434        C  0.39466968  0.33950087  0.36750344    -0.23700
C435        C  0.36813556  0.33034846  0.37289617     0.40900
C436        C  0.35480662  0.33970955  0.35704776    -0.26100
O437        O  0.40669809  0.38464141  0.30886748    -0.58000
H438        H  0.42734723  0.36473782  0.34072362     0.16500
O439        O  0.35487761  0.31194620  0.39318787    -0.59500
H440        H  0.33454188  0.33277226  0.36166511     0.15000
H441        H  0.30817809  0.39824821  0.34220620     0.46900
H442        H  0.41290230  0.40170631  0.31795669     0.42200
H443        H  0.35556885  0.32182824  0.41030515     0.45700
H444        H  0.37218373  0.36362179  0.26453947     0.37200
C445        C  0.16271969  0.75478735  0.46892875    -0.27100
C446        C  0.19004451  0.76836995  0.46955856     0.02500
C447        C  0.22010232  0.77912392  0.98841282     0.30600
C448        C  0.20622216  0.76339584  0.01129218    -0.18900
C449        C  0.17893343  0.74767870  0.01052955    -0.28300
C450        C  0.14818156  0.73670349  0.49009992     0.44600
C451        C  0.20549443  0.78702639  0.44697937     0.05800
O452        O  0.24676016  0.79331461  0.98975686    -0.56800
H453        H  0.21701627  0.76335497  0.02964505     0.18800
O454        O  0.12153577  0.72347534  0.48865081    -0.63500
H455        H  0.15266083  0.75831238  0.45207588     0.17200
C456        C  0.20420357  0.77856935  0.41903417     0.29500
C457        C  0.22213539  0.79536268  0.39902896    -0.24400
C458        C  0.24120815  0.82095504  0.40629088    -0.23700
C459        C  0.24123580  0.82988703  0.43381328     0.40900
C460        C  0.22368317  0.81287498  0.45397324    -0.26100
O461        O  0.18672772  0.75339638  0.41160515    -0.58000
H462        H  0.22150885  0.78806332  0.37793807     0.16500
O463        O  0.25931805  0.85468758  0.44177547    -0.59500
H464        H  0.22477772  0.81965165  0.47541939     0.15000
H465        H  0.13171762  0.74298793  0.98772704     0.46900
H466        H  0.17200939  0.75396391  0.40264396     0.42200
H467        H  0.25075599  0.86492715  0.43863483     0.45700
H468        H  0.23436657  0.76587887  0.48000196     0.37200
C469        C  0.25968877  0.79807821  0.22748564    -0.27100
C470        C  0.23374922  0.79144240  0.22387327     0.02500
C471        C  0.22202280  0.79966021  0.24373849     0.30600
C472        C  0.23638621  0.81457641  0.26685831    -0.18900
C473        C  0.26246478  0.82140383  0.27054600    -0.28300
C474        C  0.27411199  0.81303969  0.25058229     0.44600
C475        C  0.21897991  0.77567724  0.19940702     0.05800
O476        O  0.19623276  0.79217927  0.24135639    -0.56800
H477        H  0.22692558  0.82045827  0.28216930     0.18800
O478        O  0.29953280  0.81938961  0.25333779    -0.63500
H479        H  0.26880749  0.79177372  0.21220849     0.17200
C480        C  0.21004324  0.78592451  0.17858284     0.29500
C481        C  0.19544399  0.77044008  0.15593741    -0.24400
C482        C  0.18966591  0.74467610  0.15357307    -0.23700
C483        C  0.19903500  0.73457150  0.17430261     0.40900
C484        C  0.21373504  0.75016795  0.19693447    -0.26100
O485        O  0.21544522  0.81103850  0.18022501    -0.58000
H486        H  0.18864583  0.77867881  0.14015776     0.16500
O487        O  0.19363758  0.70944838  0.17297184    -0.59500
H488        H  0.22063740  0.74219248  0.21291782     0.15000
H489        H  0.30985334  0.83636350  0.24371875     0.46900
H490        H  0.23263567  0.82158632  0.17101817     0.42200
H491        H  0.17714213  0.69915958  0.18356287     0.45700
H492        H  0.19611663  0.80778560  0.23472144     0.37200
C493        C  0.42291971  0.21759952  0.24671281    -0.27100
C494        C  0.44298375  0.22719202  0.26674786     0.02500
C495        C  0.46120755  0.21898836  0.26597854     0.30600
C496        C  0.45845866  0.20044917  0.24613324    -0.18900
C497        C  0.43761472  0.18983164  0.22690436    -0.28300
C498        C  0.42017965  0.19914486  0.22682483     0.44600
C499        C  0.44247196  0.24272065  0.29064575     0.05800
O500        O  0.48041036  0.22731630  0.28603035    -0.56800
H501        H  0.47209244  0.19361708  0.24659756     0.18800
O502        O  0.39984116  0.18973505  0.20810523    -0.63500
H503        H  0.40878709  0.22381455  0.24714490     0.17200
C504        C  0.46368517  0.26750513  0.29690560     0.29500
C505        C  0.46317468  0.28052933  0.32119948    -0.24400
C506        C  0.44146982  0.26929187  0.33921774    -0.23700
C507        C  0.42001947  0.24469870  0.33249118     0.40900
C508        C  0.42063353  0.23170519  0.30832695    -0.26100
O509        O  0.48493953  0.27911324  0.27946295    -0.58000
H510        H  0.47968339  0.29957895  0.32578822     0.16500
O511        O  0.39857118  0.23289365  0.34965724    -0.59500
H512        H  0.40423430  0.21256483  0.30377427     0.15000
H513        H  0.40683478  0.20113753  0.19134144     0.46900
H514        H  0.48100971  0.28903975  0.26564674     0.42200
H515        H  0.40189819  0.22199429  0.36273179     0.45700
H516        H  0.49665008  0.24000874  0.27623524     0.37200
C517        C  0.42897996  0.18924670  0.05535129    -0.27100
C518        C  0.40583423  0.18955678  0.05207830     0.02500
C519        C  0.38468001  0.17391767  0.06999498     0.30600
C520        C  0.38722284  0.15882704  0.09118658    -0.18900
C521        C  0.41083943  0.15930520  0.09506923    -0.28300
C522        C  0.43165051  0.17450264  0.07649630     0.44600
C523        C  0.40445892  0.20607519  0.02939303     0.05800
O524        O  0.36127672  0.17263276  0.06634102    -0.56800
H525        H  0.37088915  0.14724716  0.10500924     0.18800
O526        O  0.45478166  0.17498559  0.07859149    -0.63500
H527        H  0.44537652  0.20092040  0.04162115     0.17200
C528        C  0.39958807  0.22626901  0.03537717     0.29500
C529        C  0.40128152  0.24321288  0.01383963    -0.24400
C530        C  0.41877730  0.25468876  0.47996433    -0.23700
C531        C  0.42514750  0.23510278  0.47700348     0.40900
C532        C  0.41082383  0.20323255  0.00164542    -0.26100
O533        O  0.39440239  0.23042020  0.06243098    -0.58000
H534        H  0.39802555  0.25891809  0.01908008     0.16500
O535        O  0.43546084  0.23225818  0.45235437    -0.59500
H536        H  0.41482952  0.18796952  0.99664806     0.15000
H537        H  0.46660208  0.19115540  0.08903254     0.46900
H538        H  0.41159621  0.24282907  0.07073256     0.42200
H539        H  0.42036944  0.21890504  0.44144647     0.45700
H540        H  0.35938527  0.18165740  0.08290128     0.37200
C541        C  0.35269995  0.00911125  0.22579923    -0.27100
C542        C  0.35573541  0.01095417  0.25529412     0.02500
C543        C  0.36989232  0.03570831  0.26772891     0.30600
C544        C  0.38140721  0.05796337  0.25066599    -0.18900
C545        C  0.37900244  0.05614104  0.22104557    -0.28300
C546        C  0.36400955  0.03134025  0.20875247     0.44600
C547        C  0.34635916  0.98685758  0.27223452     0.05800
O548        O  0.37430127  0.03825741  0.29629643    -0.56800
H549        H  0.39290710  0.07671888  0.26072353     0.18800
O550        O  0.36136361  0.02840247  0.18002853    -0.63500
H551        H  0.34196897  0.99021276  0.21584571     0.17200
C552        C  0.32950848  0.98072989  0.29554845     0.29500
C553        C  0.32121850  0.95764469  0.31071091    -0.24400
C554        C  0.32951097  0.94034248  0.30300702    -0.23700
C555        C  0.34630107  0.94659479  0.27954223     0.40900
C556        C  0.35452118  0.96955759  0.26456955    -0.26100
O557        O  0.32081546  0.99697789  0.30354957    -0.58000
H558        H  0.30821786  0.95326203  0.32846924     0.16500
O559        O  0.35501323  0.93049165  0.27096781    -0.59500
H560        H  0.36755329  0.97395806  0.24682268     0.15000
H561        H  0.34525983  0.02858619  0.17552223     0.46900
H562        H  0.30575475  0.99246636  0.29108252     0.42200
H563        H  0.34252636  0.91923516  0.25623473     0.45700
H564        H  0.36437598  0.04619308  0.30354664     0.37200
C565        C  0.56032204  0.80287312  0.30937364    -0.27100
C566        C  0.58331057  0.80203341  0.30813714     0.02500
C567        C  0.60387907  0.81791729  0.32658950     0.30600
C568        C  0.60100855  0.83387917  0.34630678    -0.18900
C569        C  0.57761440  0.83414667  0.34814330    -0.28300
C570        C  0.55739597  0.81873626  0.32893674     0.44600
C571        C  0.58507387  0.78404575  0.28777028     0.05800
O572        O  0.62652712  0.81736079  0.32612165    -0.56800
H573        H  0.61677455  0.84532258  0.36087169     0.18800
O574        O  0.53432288  0.81846349  0.32946845    -0.63500
H575        H  0.54439870  0.79094071  0.29515962     0.17200
C576        C  0.56806561  0.75706529  0.28989164     0.29500
C577        C  0.56773788  0.74044436  0.26884427    -0.24400
C578        C  0.58426287  0.75019707  0.24523596    -0.23700
C579        C  0.60198190  0.77722253  0.24366458     0.40900
C580        C  0.60240038  0.79383832  0.26492504    -0.26100
O581        O  0.55118416  0.74679955  0.31218752    -0.58000
H582        H  0.55389166  0.71985393  0.27068476     0.16500
O583        O  0.61864119  0.78772456  0.22122341    -0.59500
H584        H  0.61560893  0.81455727  0.26298728     0.15000
H585        H  0.53721611  0.83317897  0.31735941     0.46900
H586        H  0.56011725  0.74159406  0.32606383     0.42200
H587        H  0.60999461  0.79386331  0.20810823     0.45700
H588        H  0.62362075  0.80337853  0.33936549     0.37200
C589        C  0.53683849  0.78061960  0.02013052    -0.27100
C590        C  0.55854458  0.79159566  0.03816017     0.02500
C591        C  0.57925501  0.81696235  0.03265895     0.30600
C592        C  0.57831491  0.83052704  0.00913692    -0.18900
C593        C  0.55470998  0.81200041  0.48428373    -0.28300
C594        C  0.57597270  0.80916737  0.49184146     0.44600
C595        C  0.55978988  0.77605724  0.06188438     0.05800
O596        O  0.60046280  0.82876555  0.05020960    -0.56800
H597        H  0.51430702  0.79882337  0.49311285     0.18800
O598        O  0.59946208  0.82297897  0.47833471    -0.63500
H599        H  0.52099392  0.76096263  0.02350912     0.17200
C600        C  0.53874964  0.76248797  0.08061216     0.29500
C601        C  0.54017889  0.74720346  0.10213810    -0.24400
C602        C  0.56246847  0.74521014  0.10548748    -0.23700
C603        C  0.58363271  0.75915812  0.08691904     0.40900
C604        C  0.58208190  0.77419609  0.06535103    -0.26100
O605        O  0.51716792  0.76490750  0.07874444    -0.58000
H606        H  0.52380605  0.73699720  0.11631783     0.16500
O607        O  0.60614241  0.75854064  0.08974947    -0.59500
H608        H  0.59834444  0.78419015  0.05098703     0.15000
H609        H  0.59878592  0.81155237  0.46280763     0.46900
H610        H  0.50308635  0.74799971  0.07162059     0.42200
H611        H  0.60410080  0.74459900  0.07681919     0.45700
H612        H  0.59534637  0.83648019  0.06560082     0.37200
C613        C  0.44410198  0.85377454  0.41751387    -0.27100
C614        C  0.44445950  0.87308500  0.40056065     0.02500
C615        C  0.46829069  0.89276896  0.38956774     0.30600
C616        C  0.49120175  0.89236820  0.39467237    -0.18900
C617        C  0.49083201  0.87255661  0.41095922    -0.28300
C618        C  0.46701796  0.85358134  0.42309994     0.44600
C619        C  0.41963978  0.87154911  0.39304456     0.05800
O620        O  0.46928245  0.91213282  0.37324838    -0.56800
H621        H  0.50922872  0.90739863  0.38545788     0.18800
O622        O  0.46567825  0.83427120  0.43980018    -0.63500
H623        H  0.42588235  0.83862373  0.42627598     0.17200
C624        C  0.40129659  0.85114858  0.37603657     0.29500
C625        C  0.37805628  0.84992324  0.36857532    -0.24400
C626        C  0.37257326  0.86893914  0.37773944    -0.23700
C627        C  0.39102222  0.88940991  0.39493822     0.40900
C628        C  0.41435846  0.89059945  0.40237476    -0.26100
O629        O  0.40654018  0.83302242  0.36538935    -0.58000
H630        H  0.36449513  0.83420728  0.35506016     0.16500
O631        O  0.38688263  0.90875459  0.40392892    -0.59500
H632        H  0.42842273  0.90647894  0.41538193     0.15000
H633        H  0.46653978  0.84036759  0.45946394     0.46900
H634        H  0.39830674  0.81825203  0.37875716     0.42200
H635        H  0.37916269  0.90336740  0.42300271     0.45700
H636        H  0.46485998  0.90485482  0.35389039     0.37200
C637        C  0.76440283  0.25163835  0.42391713    -0.27100
C638        C  0.77478374  0.25147660  0.45034895     0.02500
C639        C  0.80138772  0.26847379  0.45566534     0.30600
C640        C  0.81771007  0.28375563  0.43387623    -0.18900
C641        C  0.80778018  0.28232633  0.40662558    -0.28300
C642        C  0.78070584  0.26689252  0.40202214     0.44600
C643        C  0.75857552  0.23123029  0.47092494     0.05800
O644        O  0.81182830  0.26913495  0.48165437    -0.56800
H645        H  0.83838083  0.29576754  0.43799663     0.18800
O646        O  0.77016124  0.26523398  0.37583759    -0.63500
H647        H  0.74389148  0.23863070  0.41970804     0.17200
C648        C  0.74789082  0.21352267  0.00208979     0.29500
C649        C  0.73264816  0.19698598  0.02383339    -0.24400
C650        C  0.73340952  0.17452769  0.03023904    -0.23700
C651        C  0.74995180  0.19261725  0.49673004     0.40900
C652        C  0.76466285  0.21211319  0.47720171    -0.26100
O653        O  0.74742724  0.23579874  0.99698169    -0.58000
H654        H  0.72035687  0.20189846  0.03588729     0.16500
O655        O  0.75663525  0.17432091  0.50231633    -0.59500
H656        H  0.78099168  0.21237390  0.46692087     0.15000
H657        H  0.76918413  0.24983445  0.36679491     0.46900
H658        H  0.73086994  0.23011889  0.98676770     0.42200
H659        H  0.76536437  0.15151725  0.03165455     0.45700
H660        H  0.80905761  0.28142698  0.49299498     0.37200
C661        C  0.76661429  0.20886296  0.18794569    -0.27100
C662        C  0.77490179  0.19731726  0.20780143     0.02500
C663        C  0.76419111  0.17022379  0.20695134     0.30600
C664        C  0.74580081  0.15522600  0.18615947    -0.18900
C665        C  0.73769945  0.16686476  0.16601893    -0.28300
C666        C  0.74832243  0.19403531  0.16725335     0.44600
C667        C  0.79344257  0.21378082  0.23020438     0.05800
O668        O  0.77156249  0.15821780  0.22632489    -0.56800
H669        H  0.73790531  0.13446166  0.18579613     0.18800
O670        O  0.74078120  0.20643103  0.14857748    -0.63500
H671        H  0.77404870  0.22954566  0.18875621     0.17200
C672        C  0.81709977  0.23645260  0.22345426     0.29500
C673        C  0.83234610  0.25377344  0.24484810    -0.24400
C674        C  0.82432044  0.24896364  0.27318050    -0.23700
C675        C  0.80145180  0.22539981  0.28001952     0.40900
C676        C  0.78620950  0.20818712  0.25861372    -0.26100
O677        O  0.82542540  0.24179743  0.19597590    -0.58000
H678        H  0.85003530  0.27146476  0.23906072     0.16500
O679        O  0.79286733  0.21964712  0.30735387    -0.59500
H680        H  0.76800492  0.19095043  0.26417696     0.15000
H681        H  0.75401932  0.21288054  0.13338605     0.46900
H682        H  0.82304198  0.25636017  0.19025301     0.42200
H683        H  0.79921436  0.20826320  0.31429186     0.45700
H684        H  0.78774267  0.15982024  0.21863831     0.37200
C685        C  0.58350182  0.13972689  0.11641614    -0.27100
C686        C  0.56552527  0.12070992  0.13482175     0.02500
C687        C  0.57066338  0.10181561  0.14539896     0.30600
C688        C  0.59345085  0.10216036  0.13751211    -0.18900
C689        C  0.61147401  0.12120195  0.11902052    -0.28300
C690        C  0.60623182  0.14009336  0.10845262     0.44600
C691        C  0.54143752  0.12077119  0.14244782     0.05800
O692        O  0.55366336  0.08305869  0.16365023    -0.56800
H693        H  0.59701694  0.08747075  0.14594588     0.18800
O694        O  0.62352844  0.15951339  0.09098933    -0.63500
H695        H  0.57978450  0.15428918  0.10789912     0.17200
C696        C  0.54272038  0.14310833  0.15378943     0.29500
C697        C  0.51982423  0.14326254  0.15954792    -0.24400
C698        C  0.49525795  0.12152757  0.15364974    -0.23700
C699        C  0.49399929  0.09908954  0.14239652     0.40900
C700        C  0.51694902  0.09878631  0.13714740    -0.26100
O701        O  0.56630572  0.16467391  0.16000759    -0.58000
H702        H  0.52140382  0.16069540  0.16834181     0.16500
O703        O  0.47051422  0.07723051  0.13674898    -0.59500
H704        H  0.51562299  0.08149818  0.12824957     0.15000
H705        H  0.61575661  0.15461935  0.07185253     0.46900
H706        H  0.56901822  0.17762254  0.14531797     0.42200
H707        H  0.46693267  0.07877202  0.11662842     0.45700
H708        H  0.55826460  0.09125850  0.18255444     0.37200
C709        C  0.64458473  0.03001366  0.00423320    -0.27100
C710        C  0.63668843  0.00597419  0.01676517     0.02500
C711        C  0.64158326  0.00523026  0.04583918     0.30600
C712        C  0.65282138  0.02817750  0.06206400    -0.18900
C713        C  0.65936129  0.05204463  0.04965656    -0.28300
C714        C  0.65591492  0.05280293  0.02020440     0.44600
C715        C  0.62910269  0.99141032  0.49520990     0.05800
O716        O  0.63627087  0.98236160  0.05826309    -0.56800
H717        H  0.65590356  0.02716612  0.08444379     0.18800
O718        O  0.66378675  0.07582388  0.00657578    -0.63500
H719        H  0.67766429  0.03306399  0.49188821     0.17200
C720        C  0.62632827  0.99109814  0.46567870     0.29500
C721        C  0.61558993  0.96755907  0.45080121    -0.24400
C722        C  0.60767360  0.94409483  0.46502313    -0.23700
C723        C  0.61124934  0.94474543  0.49460172     0.40900
C724        C  0.63364601  0.98117104  0.97276497    -0.26100
O725        O  0.63284471  0.01350541  0.45141003    -0.58000
H726        H  0.61285033  0.96761061  0.42820716     0.16500
O727        O  0.63135757  0.95973151  0.92930955    -0.59500
H728        H  0.65212132  0.99742432  0.96600140     0.15000
H729        H  0.64780743  0.07679707  0.00431442     0.46900
H730        H  0.65037379  0.01952814  0.44348809     0.42200
H731        H  0.61950758  0.92022888  0.50836896     0.45700
H732        H  0.62257225  0.97842957  0.07249333     0.37200
O733        O  0.65201481  0.12801303  0.61091750    -0.57300
C734        C  0.71434829  0.17327732  0.53319353     0.75300
O735        O  0.71254154  0.13723597  0.62303537    -0.58400
C736        C  0.64059668  0.13524250  0.59389339     0.75300
C737        C  0.67117566  0.08778963  0.55718051     0.77700
Cd738      Cd  0.68901430  0.13891433  0.57981536     1.37500
O739        O  0.69907041  0.17595876  0.54941277    -0.57300
O740        O  0.65582706  0.09412898  0.56775811    -0.56100
C741        C  0.72541188  0.16157608  0.62673890     0.77700
O742        O  0.69519337  0.10457315  0.55881301    -0.58500
O743        O  0.71705961  0.15402925  0.53797961    -0.56900
O744        O  0.65207556  0.14482946  0.57075717    -0.56900
O745        O  0.72123343  0.17477617  0.60910644    -0.56100
O746        O  0.50862623  0.84696944  0.91922094    -0.57300
C747        C  0.55608419  0.83438600  0.96666450     0.75300
O748        O  0.54872791  0.82473164  0.89435575    -0.58400
C749        C  0.50906957  0.86125830  0.89934614     0.75300
C750        C  0.58308556  0.91348742  0.94646506     0.77700
Cd751      Cd  0.55530372  0.86306460  0.91905659     1.37500
O752        O  0.57693894  0.85191628  0.95540862    -0.57300
O753        O  0.59338546  0.90853678  0.92571159    -0.56100
C754        C  0.56521155  0.83541085  0.87485366     0.77700
O755        O  0.56031222  0.89585025  0.95297662    -0.58500
O756        O  0.53493658  0.83027054  0.95578489    -0.56900
O757        O  0.53100917  0.87630040  0.88820820    -0.56900
O758        O  0.57846773  0.86007708  0.87554101    -0.56100
O759        O  0.45331704  0.16868205  0.70108435    -0.57300
C760        C  0.47595273  0.13380617  0.64520826     0.75300
O761        O  0.39404962  0.09091861  0.66780660    -0.58400
C762        C  0.43375810  0.17079912  0.70675751     0.75300
C763        C  0.42247365  0.16306659  0.61705709     0.77700
Cd764      Cd  0.43168669  0.13694057  0.66303970     1.37500
O765        O  0.47689819  0.14836512  0.66509169    -0.57300
O766        O  0.44371541  0.17282027  0.63045267    -0.56100
C767        C  0.40042314  0.08803967  0.69255017     0.77700
O768        O  0.40512960  0.14016011  0.62399740    -0.58500
O769        O  0.45415949  0.12051105  0.63298498    -0.56900
O770        O  0.41365067  0.15752102  0.69178734    -0.56900
O771        O  0.42050982  0.10738847  0.70267068    -0.56100
O772        O  0.34393728  0.88251651  0.85387250    -0.57300
C773        C  0.27698771  0.83946962  0.77657325     0.75300
O774        O  0.28396252  0.86720741  0.87080881    -0.58400
C775        C  0.34880071  0.86574324  0.84428334     0.75300
C776        C  0.32436972  0.91961537  0.80007301     0.77700
Cd777      Cd  0.30493750  0.86890364  0.82473861     1.37500
O778        O  0.29741016  0.84011420  0.78504814    -0.57300
O779        O  0.33081989  0.90366760  0.79179219    -0.56100
C780        C  0.26800382  0.84296602  0.86981590     0.77700
O781        O  0.30936806  0.91273614  0.82131905    -0.58500
O782        O  0.26985336  0.85292113  0.79033503    -0.56900
O783        O  0.33319246  0.85041109  0.82587318    -0.56900
O784        O  0.26824314  0.83161749  0.84746403    -0.56100
O785        O  0.28781737  0.45055415  0.78933905    -0.59700
C786        C  0.34054569  0.47016859  0.73760660     0.75300
O787        O  0.30801333  0.39435233  0.75240780    -0.58400
C788        C  0.26367418  0.43555764  0.79341111     0.75300
C789        C  0.25781061  0.41257548  0.70118616     0.77700
Cd790      Cd  0.29083560  0.42483753  0.75056255     1.37500
O791        O  0.32351806  0.47129484  0.75242301    -0.57300
O792        O  0.25350826  0.39511782  0.71899767    -0.56100
C793        C  0.30268762  0.38883255  0.77827053     0.77700
O794        O  0.27760829  0.43456552  0.70581311    -0.58500
O795        O  0.33461489  0.44785715  0.72876603    -0.56900
O796        O  0.25216858  0.41641911  0.77678573    -0.56900
O797        O  0.29118730  0.39898647  0.79016455    -0.56100
O798        O  0.44925368  0.29380124  0.88239295    -0.57300
C799        C  0.47070157  0.34635506  0.94160620     0.75300
O800        O  0.38169026  0.29759075  0.91301797    -0.58400
C801        C  0.42952752  0.27358142  0.87271275     0.75300
C802        C  0.41289884  0.26059139  0.96434738     0.77700
Cd803      Cd  0.42474096  0.29976473  0.92100978     1.37500
O804        O  0.47111881  0.33322893  0.92090940    -0.57300
O805        O  0.42474419  0.26223401  0.94168897    -0.56100
C806        C  0.39069851  0.31558993  0.89478943     0.77700
O807        O  0.40577248  0.27710162  0.96733487    -0.58500
O808        O  0.44894660  0.33745076  0.95386879    -0.56900
O809        O  0.40816196  0.26616214  0.88521272    -0.56900
O810        O  0.41485991  0.32648540  0.89034844    -0.56100
O811        O  0.71243734  0.54935501  0.53919355    -0.57300
C812        C  0.63877180  0.50847675  0.99482488     0.75300
O813        O  0.68760957  0.58596192  0.54336369    -0.58400
C814        C  0.73476085  0.56843586  0.54503180     0.75300
C815        C  0.72183185  0.55937744  0.96377488     0.77700
Cd816      Cd  0.70139156  0.57125954  0.50264540     1.37500
O817        O  0.66826893  0.52434325  0.50513734    -0.57300
O818        O  0.71493749  0.54150521  0.98177840    -0.56100
C819        C  0.68316875  0.60211521  0.53145001     0.77700
O820        O  0.71294615  0.57443250  0.96735688    -0.58500
O821        O  0.64784046  0.53040701  0.98310345    -0.56900
O822        O  0.74196870  0.58884953  0.53080697    -0.56900
O823        O  0.68790691  0.60514070  0.50514654    -0.56100
O824        O  0.52981506  0.69390346  0.62848593    -0.57300
C825        C  0.50517071  0.63640125  0.68549048     0.75300
O826        O  0.56118487  0.66017319  0.63491501    -0.58400
C827        C  0.54925654  0.71605764  0.62292306     0.75300
C828        C  0.55933063  0.71836532  0.71682392     0.77700
Cd829      Cd  0.55070672  0.68474306  0.66837131     1.37500
O830        O  0.50422136  0.65139637  0.66736403    -0.57300
O831        O  0.54544908  0.71651231  0.69582373    -0.56100
C832        C  0.58494285  0.66995715  0.64109572     0.77700
O833        O  0.56977980  0.70450867  0.71587953    -0.58500
O834        O  0.52732489  0.64396259  0.69621990    -0.56900
O835        O  0.56916054  0.72346272  0.63831028    -0.56900
O836        O  0.59327760  0.68647251  0.66099584    -0.56100
O837        O  0.81879075  0.28083075  0.87536707    -0.57300
C838        C  0.85575142  0.34164636  0.82765589     0.75300
O839        O  0.89623345  0.29311923  0.85338048    -0.58400
C840        C  0.82554656  0.26878065  0.89193359     0.75300
C841        C  0.83057490  0.25828088  0.79764479     0.77700
Cd842      Cd  0.85592510  0.29530598  0.84335416     1.37500
O843        O  0.84498026  0.32902652  0.84987211    -0.57300
O844        O  0.81843152  0.25965925  0.81870603    -0.56100
C845        C  0.90809053  0.31502850  0.86563780     0.77700
O846        O  0.85504213  0.27355858  0.79794103    -0.58500
O847        O  0.86633231  0.33245841  0.81206014    -0.56900
O848        O  0.84651143  0.26939352  0.88613132    -0.56900
O849        O  0.89636980  0.32757529  0.86582995    -0.56100
O850        O  0.14530706  0.45123222  0.95571247    -0.57300
C851        C  0.12408390  0.47273556  0.51752651     0.75300
O852        O  0.07667145  0.40850580  0.99993310    -0.58400
C853        C  0.16108514  0.44309238  0.95694269     0.75300
C854        C  0.14579488  0.41493645  0.54554584     0.77700
Cd855      Cd  0.12670246  0.42889742  0.49710418     1.37500
O856        O  0.14251561  0.47518360  0.50214937    -0.57300
O857        O  0.15063023  0.43764490  0.54057153    -0.56100
C858        C  0.07517208  0.39638669  0.97742015     0.77700
O859        O  0.13086258  0.39750256  0.52820282    -0.58500
O860        O  0.10654777  0.44972826  0.52344621    -0.56900
O861        O  0.16105102  0.43184557  0.97956783    -0.56900
O862        O  0.09659289  0.40051394  0.96764228    -0.56100
O863        O  0.15664458  0.69462984  0.62217301    -0.57300
C864        C  0.11906515  0.63250814  0.57169575     0.75300
O865        O  0.09460297  0.66973735  0.62532041    -0.58400
C866        C  0.16065144  0.71741291  0.62498448     0.75300
C867        C  0.14690856  0.71348796  0.53548410     0.77700
Cd868      Cd  0.12339977  0.68155022  0.58479761     1.37500
O869        O  0.10754281  0.64127670  0.55709792    -0.57300
O870        O  0.15830240  0.70517018  0.55097251    -0.56100
C871        C  0.07472507  0.66725425  0.61301073     0.77700
O872        O  0.12352206  0.70608853  0.54193368    -0.58500
O873        O  0.13247981  0.64639351  0.59222683    -0.56900
O874        O  0.14744891  0.72340247  0.60912751    -0.56900
O875        O  0.07712064  0.67197341  0.58674496    -0.56100
O876        O  0.84425272  0.50654437  0.75654239    -0.57300
C877        C  0.83532034  0.55682752  0.70966199     0.75300
O878        O  0.85836200  0.57250260  0.80408070    -0.58400
C879        C  0.85646541  0.50547082  0.77785232     0.75300
C880        C  0.91251178  0.58284324  0.73192395     0.77700
Cd881      Cd  0.86169241  0.55338084  0.75822733     1.37500
O882        O  0.83468813  0.53591458  0.71578449    -0.57300
O883        O  0.89728042  0.55879620  0.72857919    -0.56100
C884        C  0.83391418  0.56307161  0.80213621     0.77700
O885        O  0.90562129  0.59360934  0.75031661    -0.58500
O886        O  0.84789110  0.57573976  0.72633271    -0.56900
O887        O  0.87085466  0.52671659  0.79062098    -0.56900
O888        O  0.82323307  0.55009093  0.78007615    -0.56100
C889        C  0.00351434  0.64193676  0.63203238    -0.27100
C890        C  0.00415235  0.63910457  0.66142558     0.02500
C891        C  0.02801914  0.64668100  0.67461651     0.30600
C892        C  0.05070425  0.65633542  0.65854692    -0.18900
C893        C  0.05027587  0.65881375  0.62905484    -0.28300
C894        C  0.02638081  0.65183737  0.61583341     0.44600
C895        C  0.97976306  0.62561318  0.67809108     0.05800
O896        O  0.02901855  0.64298389  0.70305394    -0.56800
H897        H  0.06866660  0.66135097  0.66932173     0.18800
O898        O  0.02500352  0.65409520  0.58717317    -0.63500
H899        H  0.98516252  0.63593127  0.62158612     0.17200
C900        C  0.97408209  0.63849016  0.69924627     0.29500
C901        C  0.95243781  0.62442327  0.71698872    -0.24400
C902        C  0.93624903  0.59739111  0.71407353    -0.23700
C903        C  0.94190767  0.58472577  0.69237681     0.40900
C904        C  0.96344189  0.59882350  0.67475558    -0.26100
O905        O  0.98923681  0.66489528  0.70221444    -0.58000
H906        H  0.94827256  0.63474291  0.73294378     0.16500
O907        O  0.92673589  0.55845860  0.68827916    -0.59500
H908        H  0.96777534  0.58864636  0.65875733     0.15000
H909        H  0.02001525  0.63678562  0.57943633     0.46900
H910        H  0.99964017  0.66768684  0.71954775     0.42200
H911        H  0.91403154  0.55629570  0.67348435     0.45700
H912        H  0.03725357  0.66052606  0.71153460     0.37200
C913        C  0.10297898  0.51556428  0.55411703    -0.27100
C914        C  0.12027967  0.53978785  0.54221275     0.02500
C915        C  0.13952650  0.54209441  0.52340177     0.30600
C916        C  0.14101215  0.52023001  0.51637299    -0.18900
C917        C  0.12306893  0.49567887  0.52733084    -0.28300
C918        C  0.10416297  0.49356254  0.54675704     0.44600
C919        C  0.11834436  0.56263648  0.54987337     0.05800
O920        O  0.15396275  0.57217638  0.99012125    -0.56800
H921        H  0.14781680  0.52618356  0.98248727     0.18800
O922        O  0.08646467  0.47010546  0.55832875    -0.63500
H923        H  0.08822635  0.51365223  0.56883131     0.17200
C924        C  0.11268608  0.57603846  0.52939050     0.29500
C925        C  0.11219471  0.59836332  0.53691938    -0.24400
C926        C  0.11745426  0.60769556  0.56477754    -0.23700
C927        C  0.12204261  0.59359584  0.58547317     0.40900
C928        C  0.12244048  0.57124638  0.57793143    -0.26100
O929        O  0.10797872  0.56765038  0.50191131    -0.58000
H930        H  0.10838585  0.60877269  0.52075684     0.16500
O931        O  0.12633560  0.60154768  0.61310370    -0.59500
H932        H  0.12646112  0.56086131  0.59393528     0.15000
H933        H  0.09462494  0.46896404  0.57605967     0.46900
H934        H  0.08874336  0.55693699  0.50029441     0.42200
H935        H  0.10876177  0.59423303  0.62149195     0.45700
H936        H  0.15256159  0.56497285  0.49218337     0.37200
C937        C  0.84161066  0.43577738  0.77819600    -0.27100
C938        C  0.85479774  0.43551611  0.80248825     0.02500
C939        C  0.86740973  0.45782353  0.81953397     0.30600
C940        C  0.86733518  0.48031942  0.81165517    -0.18900
C941        C  0.85460636  0.48087633  0.78689858    -0.28300
C942        C  0.84135667  0.45812368  0.77035148     0.44600
C943        C  0.85559122  0.41190368  0.80935849     0.05800
O944        O  0.88098725  0.45820577  0.84306379    -0.56800
H945        H  0.87767384  0.49748977  0.82471605     0.18800
O946        O  0.82829422  0.45749523  0.74628417    -0.63500
H947        H  0.83163440  0.41858477  0.76508913     0.17200
C948        C  0.84295234  0.39714451  0.83340355     0.29500
C949        C  0.84323151  0.37440515  0.83900930    -0.24400
C950        C  0.85593411  0.36586817  0.82079277    -0.23700
C951        C  0.86871586  0.38083205  0.79669192     0.40900
C952        C  0.86827471  0.40353112  0.79105716    -0.26100
O953        O  0.82995883  0.40459944  0.85135067    -0.58000
H954        H  0.83327886  0.36334138  0.85765864     0.16500
O955        O  0.88145334  0.37341447  0.77832536    -0.59500
H956        H  0.87796184  0.41473381  0.77237445     0.15000
H957        H  0.84051203  0.46053521  0.73059117     0.46900
H958        H  0.81205158  0.39648493  0.84365842     0.42200
H959        H  0.89933164  0.38110107  0.78601811     0.45700
H960        H  0.86978607  0.45657969  0.85928269     0.37200
C961        C  0.00318396  0.36030657  0.95774641    -0.27100
C962        C  0.00381756  0.35290151  0.92975878     0.02500
C963        C  0.02766641  0.35775258  0.91846558     0.30600
C964        C  0.05053081  0.37089373  0.93467362    -0.18900
C965        C  0.05014001  0.37942744  0.96232053    -0.28300
C966        C  0.02597769  0.37343325  0.97395891     0.44600
C967        C  0.98008472  0.34301524  0.91189575     0.05800
O968        O  0.02917593  0.35155290  0.89093280    -0.56800
H969        H  0.06880041  0.37535906  0.92506588     0.18800
O970        O  0.02745199  0.36455634  0.49240011    -0.63500
H971        H  0.98495372  0.35659463  0.96680666     0.17200
C972        C  0.96783444  0.31833074  0.89905097     0.29500
C973        C  0.94495772  0.30971416  0.88310077    -0.24400
C974        C  0.93372322  0.32528351  0.88004398    -0.23700
C975        C  0.94638126  0.35014815  0.89270943     0.40900
C976        C  0.96917026  0.35868182  0.90837332    -0.26100
O977        O  0.97756466  0.30219030  0.90269326    -0.58000
H978        H  0.93558215  0.29049281  0.87385986     0.16500
O979        O  0.93629221  0.36612566  0.89073825    -0.59500
H980        H  0.97833755  0.37772132  0.91807491     0.15000
H981        H  0.02441741  0.37845464  0.49905323     0.46900
H982        H  0.96727423  0.29045797  0.91833062     0.42200
H983        H  0.94457802  0.37694864  0.87379907     0.45700
H984        H  0.03019199  0.33558255  0.89187629     0.37200
C985        C  0.80593779  0.58192646  0.65634554    -0.27100
C986        C  0.79540755  0.56175207  0.63649040     0.02500
C987        C  0.79885287  0.54040728  0.64024974     0.30600
C988        C  0.81208513  0.53917101  0.66404484    -0.18900
C989        C  0.82202952  0.55902087  0.68438427    -0.28300
C990        C  0.81906040  0.58068537  0.68018303     0.44600
C991        C  0.78029285  0.56301174  0.61240253     0.05800
O992        O  0.79018216  0.52118727  0.62023292    -0.56800
H993        H  0.81458334  0.52261017  0.66650722     0.18800
O994        O  0.82874526  0.60072519  0.69924463    -0.63500
H995        H  0.80347335  0.59849114  0.65365635     0.17200
C996        C  0.75410472  0.54363462  0.60840339     0.29500
C997        C  0.73986831  0.54547116  0.58603943    -0.24400
C998        C  0.75108034  0.56685405  0.56767906    -0.23700
C999        C  0.77730600  0.58648938  0.57193976     0.40900
C1000       C  0.79164428  0.58443706  0.59417933    -0.26100
O1001       O  0.74198802  0.52319168  0.62678022    -0.58000
H1002       H  0.71969749  0.53033478  0.58355045     0.16500
O1003       O  0.78902052  0.60794065  0.55487278    -0.59500
H1004       H  0.81170382  0.59967469  0.59726509     0.15000
H1005       H  0.81396378  0.59676277  0.71191879     0.46900
H1006       H  0.73315629  0.52845020  0.64070078     0.42200
H1007       H  0.79978365  0.60466215  0.54149929     0.45700
H1008       H  0.77572308  0.50553477  0.62926640     0.37200
C1009       C  0.77654868  0.55790040  0.84320715    -0.27100
C1010       C  0.78798607  0.56831260  0.86944694     0.02500
C1011       C  0.81496877  0.57885429  0.87275389     0.30600
C1012       C  0.82983627  0.57757090  0.85058205    -0.18900
C1013       C  0.81828274  0.56625649  0.82457590    -0.28300
C1014       C  0.79143830  0.55708625  0.82081183     0.44600
C1015       C  0.77143843  0.56681305  0.89365431     0.05800
O1016       O  0.82695504  0.59031238  0.89771964    -0.56800
H1017       H  0.85040576  0.58513340  0.85394328     0.18800
O1018       O  0.77931544  0.54674021  0.79554995    -0.63500
H1019       H  0.75583998  0.54982395  0.84023758     0.17200
C1020       C  0.75604989  0.57839786  0.89262185     0.29500
C1021       C  0.74032410  0.57626277  0.91571187    -0.24400
C1022       C  0.73926659  0.56221442  0.93990924    -0.23700
C1023       C  0.75483073  0.55070538  0.94087065     0.40900
C1024       C  0.77064578  0.55304810  0.91791128    -0.26100
O1025       O  0.75693436  0.59256432  0.86949990    -0.58000
H1026       H  0.72867995  0.58536019  0.91450514     0.16500
O1027       O  0.75485394  0.53715866  0.96417486    -0.59500
H1028       H  0.78223449  0.54387211  0.91896744     0.15000
H1029       H  0.78102793  0.56163181  0.78462582     0.46900
H1030       H  0.74065813  0.58123151  0.85894194     0.42200
H1031       H  0.76973157  0.54990413  0.97581038     0.45700
H1032       H  0.83336132  0.60903340  0.89512997     0.37200
C1033       C  0.64178319  0.66167346  0.61874477    -0.27100
C1034       C  0.63230486  0.64770063  0.59338831     0.02500
C1035       C  0.60721940  0.64091913  0.58418082     0.30600
C1036       C  0.59216897  0.64820434  0.60003260    -0.18900
C1037       C  0.60167601  0.66249617  0.62522193    -0.28300
C1038       C  0.62681768  0.66926362  0.63447313     0.44600
C1039       C  0.64775379  0.63851841  0.57776121     0.05800
O1040       O  0.59665373  0.62583249  0.56055983    -0.56800
H1041       H  0.57285808  0.64251652  0.59249685     0.18800
O1042       O  0.63663621  0.68248345  0.65930524    -0.63500
H1043       H  0.66086836  0.66666370  0.62641053     0.17200
C1044       C  0.65389238  0.64408427  0.54889070     0.29500
C1045       C  0.66594674  0.63270849  0.53406501    -0.24400
C1046       C  0.67239200  0.61589495  0.54770094    -0.23700
C1047       C  0.66734641  0.61147736  0.57699580     0.40900
C1048       C  0.65518011  0.62269535  0.59162300    -0.26100
O1049       O  0.64785297  0.66031978  0.53485141    -0.58000
H1050       H  0.66983436  0.63671341  0.51175128     0.16500
O1051       O  0.67323167  0.59534269  0.59149494    -0.59500
H1052       H  0.65071380  0.61826033  0.61379966     0.15000
H1053       H  0.64644102  0.70106534  0.65393903     0.46900
H1054       H  0.66172068  0.67808646  0.54011421     0.42200
H1055       H  0.67245933  0.58037308  0.10876999     0.45700
H1056       H  0.59583200  0.63743982  0.54621869     0.37200
C1057       C  0.57245389  0.46510175  0.96035206    -0.27100
C1058       C  0.56344132  0.44192644  0.97546325     0.02500
C1059       C  0.57925634  0.44075585  0.99665591     0.30600
C1060       C  0.60372960  0.46244521  0.00240917    -0.18900
C1061       C  0.61289115  0.48577718  0.98745716    -0.28300
C1062       C  0.59693665  0.48691537  0.96615649     0.44600
C1063       C  0.53892086  0.41823638  0.96693732     0.05800
O1064       O  0.59719791  0.43004109  0.48973212    -0.56800
H1065       H  0.63801535  0.47513457  0.50056218     0.18800
O1066       O  0.60499047  0.50913587  0.95083664    -0.63500
H1067       H  0.56058781  0.46614014  0.94370091     0.17200
C1068       C  0.51750555  0.40544389  0.98533881     0.29500
C1069       C  0.49534418  0.38207091  0.97699559    -0.24400
C1070       C  0.49428512  0.37100010  0.95043636    -0.23700
C1071       C  0.51582585  0.38406333  0.93212813     0.40900
C1072       C  0.53763495  0.40754867  0.94030003    -0.26100
O1073       O  0.51810742  0.41555107  0.01149984    -0.58000
H1074       H  0.47907752  0.37249140  0.99142327     0.16500
O1075       O  0.51564322  0.37436271  0.90585799    -0.59500
H1076       H  0.55397869  0.41717692  0.92596210     0.15000
H1077       H  0.61327435  0.50705428  0.93370520     0.46900
H1078       H  0.51132326  0.42739060  0.00857549     0.42200
H1079       H  0.52514615  0.36491644  0.90810332     0.45700
H1080       H  0.58970220  0.42678305  0.50897157     0.37200
C1081       C  0.18830064  0.45166836  0.88283483    -0.27100
C1082       C  0.20800601  0.44593015  0.88701174     0.02500
C1083       C  0.21321369  0.44066894  0.91433142     0.30600
C1084       C  0.19831084  0.44059689  0.93708532    -0.18900
C1085       C  0.17807680  0.44573151  0.93296862    -0.28300
C1086       C  0.17337710  0.45166125  0.90555261     0.44600
C1087       C  0.22206826  0.44400389  0.86252827     0.05800
O1088       O  0.23241012  0.43495676  0.91887307    -0.56800
H1089       H  0.20230098  0.43602842  0.95792140     0.18800
O1090       O  0.15389383  0.45686743  0.90054505    -0.63500
H1091       H  0.18419572  0.45571430  0.86178993     0.17200
C1092       C  0.20933971  0.42331456  0.84342703     0.29500
C1093       C  0.22303053  0.42117982  0.82073070    -0.24400
C1094       C  0.24956885  0.43945636  0.81676773    -0.23700
C1095       C  0.26229868  0.46018414  0.83613519     0.40900
C1096       C  0.24845365  0.46238006  0.85872697    -0.26100
O1097       O  0.18386379  0.40438568  0.84764142    -0.58000
H1098       H  0.21288770  0.40482652  0.80652161     0.16500
O1099       O  0.28823306  0.47829213  0.83338006    -0.59500
H1100       H  0.25838905  0.47829596  0.87352134     0.15000
H1101       H  0.13864528  0.44005574  0.89470709     0.46900
H1102       H  0.17362545  0.40896953  0.83496033     0.42200
H1103       H  0.29734155  0.47219874  0.84587379     0.45700
H1104       H  0.22441821  0.41631501  0.91410862     0.37200
C1105       C  0.19969586  0.38390880  0.65092565    -0.27100
C1106       C  0.20730430  0.40477741  0.63234510     0.02500
C1107       C  0.23218440  0.42696714  0.63516704     0.30600
C1108       C  0.24851803  0.42868278  0.65711339    -0.18900
C1109       C  0.24069052  0.40838454  0.67660001    -0.28300
C1110       C  0.21620314  0.38555464  0.67297322     0.44600
C1111       C  0.18867559  0.40473637  0.61173968     0.05800
O1112       O  0.24040171  0.44753587  0.61705428    -0.56800
H1113       H  0.26724587  0.44635238  0.65918759     0.18800
O1114       O  0.20758031  0.36535919  0.69163530    -0.63500
H1115       H  0.18051904  0.36678207  0.64906898     0.17200
C1116       C  0.17788246  0.38641413  0.58975681     0.29500
C1117       C  0.16256445  0.38896113  0.56898015    -0.24400
C1118       C  0.15810223  0.40981780  0.56977751    -0.23700
C1119       C  0.16803259  0.42740389  0.59257975     0.40900
C1120       C  0.18288316  0.42457309  0.61339675    -0.26100
O1121       O  0.18374572  0.36717664  0.58727898    -0.58000
H1122       H  0.15533416  0.37541462  0.55148372     0.16500
O1123       O  0.16347020  0.44757386  0.59467403    -0.59500
H1124       H  0.19067093  0.43851176  0.63052663     0.15000
H1125       H  0.21328780  0.35380481  0.68358109     0.46900
H1126       H  0.16837193  0.35138381  0.59486764     0.42200
H1127       H  0.17982603  0.46315719  0.58844930     0.45700
H1128       H  0.24813683  0.44344076  0.60082541     0.37200
C1129       C  0.43529752  0.58002980  0.68959036    -0.27100
C1130       C  0.43719040  0.56399500  0.70973933     0.02500
C1131       C  0.46164502  0.57150061  0.72159378     0.30600
C1132       C  0.48368279  0.59502086  0.71346952    -0.18900
C1133       C  0.48170235  0.61140786  0.69360591    -0.28300
C1134       C  0.45712038  0.60353461  0.68162903     0.44600
C1135       C  0.41318241  0.53988984  0.71842583     0.05800
O1136       O  0.46412463  0.55612013  0.74126149    -0.56800
H1137       H  0.50230721  0.60049780  0.72291572     0.18800
O1138       O  0.45411936  0.61849927  0.66186835    -0.63500
H1139       H  0.41665878  0.57431911  0.68001143     0.17200
C1140       C  0.39218522  0.54110641  0.73008737     0.29500
C1141       C  0.36896959  0.51828839  0.73666426    -0.24400
C1142       C  0.36582536  0.49384140  0.73100184    -0.23700
C1143       C  0.38682333  0.49262874  0.71900670     0.40900
C1144       C  0.41040673  0.51555222  0.71326069    -0.26100
O1145       O  0.39435852  0.56461877  0.73549965    -0.58000
H1146       H  0.35318154  0.51982078  0.74575925     0.16500
O1147       O  0.38464305  0.46922520  0.71297973    -0.59500
H1148       H  0.42630155  0.51433906  0.70394233     0.15000
H1149       H  0.44736409  0.62810702  0.67246048     0.46900
H1150       H  0.38446572  0.56706031  0.72017420     0.42200
H1151       H  0.37897063  0.46566718  0.69298385     0.45700
H1152       H  0.46532911  0.56449093  0.75973916     0.37200
C1153       C  0.31543164  0.35515052  0.83892641    -0.27100
C1154       C  0.33096957  0.34691067  0.82584978     0.02500
C1155       C  0.33488059  0.35003654  0.79643565     0.30600
C1156       C  0.32447288  0.36255125  0.78084349    -0.18900
C1157       C  0.31031746  0.37237875  0.79424590    -0.28300
C1158       C  0.30522149  0.36784999  0.82349474     0.44600
C1159       C  0.34570761  0.33836800  0.84363631     0.05800
O1160       O  0.34902627  0.34105169  0.78286256    -0.56800
H1161       H  0.32834693  0.36539840  0.75840234     0.18800
O1162       O  0.29165346  0.37714311  0.83767563    -0.63500
H1163       H  0.31237367  0.35300585  0.86153765     0.17200
C1164       C  0.37300690  0.35345436  0.84469758     0.29500
C1165       C  0.38708188  0.34593100  0.86176462    -0.24400
C1166       C  0.37446153  0.32355655  0.87866740    -0.23700
C1167       C  0.34695739  0.30891942  0.87847982     0.40900
C1168       C  0.33280710  0.31635996  0.86100391    -0.26100
O1169       O  0.38617631  0.37590583  0.82933845    -0.58000
H1170       H  0.40811392  0.35781394  0.86172582     0.16500
O1171       O  0.33372164  0.28696015  0.89456721    -0.59500
H1172       H  0.31174555  0.30484783  0.86086199     0.15000
H1173       H  0.27364949  0.36216496  0.83923656     0.46900
H1174       H  0.38658492  0.38957243  0.84150364     0.42200
H1175       H  0.32960960  0.29279955  0.91240896     0.45700
H1176       H  0.36548702  0.35671629  0.77715332     0.37200
C1177       C  0.17950935  0.76421254  0.96340936    -0.27100
C1178       C  0.20678145  0.77990037  0.96423171     0.02500
C1179       C  0.20280116  0.76332984  0.49137370     0.30600
C1180       C  0.18838621  0.74515471  0.51220782    -0.18900
C1181       C  0.16103660  0.73173167  0.51202830    -0.28300
C1182       C  0.16562814  0.74798602  0.98609171     0.44600
C1183       C  0.22120004  0.79656187  0.93965399     0.05800
O1184       O  0.22946160  0.77600619  0.49243374    -0.56800
H1185       H  0.19878200  0.74181289  0.52883060     0.18800
O1186       O  0.13921970  0.73188280  0.98367442    -0.63500
H1187       H  0.16884005  0.76451360  0.94508470     0.17200
C1188       C  0.21663258  0.78631001  0.91208603     0.29500
C1189       C  0.23126503  0.80200121  0.88946219    -0.24400
C1190       C  0.25073303  0.82806542  0.89368240    -0.23700
C1191       C  0.25490995  0.83848237  0.92116952     0.40900
C1192       C  0.24017811  0.82280744  0.94379796    -0.26100
O1193       O  0.19917736  0.76051234  0.90731493    -0.58000
H1194       H  0.22782981  0.79342144  0.86861015     0.16500
O1195       O  0.27431838  0.86348740  0.92650220    -0.59500
H1196       H  0.24385766  0.83114463  0.96478211     0.15000
H1197       H  0.11637750  0.73577311  0.49582135     0.46900
H1198       H  0.18416806  0.75997940  0.89767004     0.42200
H1199       H  0.26582352  0.87395202  0.92535124     0.45700
H1200       H  0.25260537  0.78175531  0.98205999     0.37200
C1201       C  0.25585194  0.79542337  0.71228747    -0.27100
C1202       C  0.23049626  0.79059560  0.70824313     0.02500
C1203       C  0.22072836  0.80211008  0.72654818     0.30600
C1204       C  0.23642442  0.81855861  0.74814558    -0.18900
C1205       C  0.26174063  0.82332993  0.75236408    -0.28300
C1206       C  0.27143434  0.81155344  0.73420405     0.44600
C1207       C  0.21386644  0.77245213  0.68583341     0.05800
O1208       O  0.19523840  0.79583583  0.72476554    -0.56800
H1209       H  0.22834125  0.82687237  0.76224465     0.18800
O1210       O  0.29578218  0.81507958  0.73806440    -0.63500
H1211       H  0.26349272  0.78643363  0.69854671     0.17200
C1212       C  0.20151477  0.77981459  0.66574843     0.29500
C1213       C  0.18434096  0.76170105  0.64613104    -0.24400
C1214       C  0.17953870  0.73617350  0.64569862    -0.23700
C1215       C  0.19265004  0.72910222  0.66529581     0.40900
C1216       C  0.20969118  0.74721984  0.68505133    -0.26100
O1217       O  0.20605223  0.80466821  0.66519863    -0.58000
H1218       H  0.17477972  0.76775578  0.63116740     0.16500
O1219       O  0.18888862  0.70455049  0.66554436    -0.59500
H1220       H  0.21918683  0.74132919  0.70030713     0.15000
H1221       H  0.30738702  0.82981289  0.72564364     0.46900
H1222       H  0.21834225  0.81328889  0.64936191     0.42200
H1223       H  0.17497219  0.69489242  0.67966224     0.45700
H1224       H  0.19580675  0.81207214  0.71931096     0.37200
C1225       C  0.41370330  0.20657573  0.75733186    -0.27100
C1226       C  0.43470776  0.21744642  0.77621028     0.02500
C1227       C  0.45563273  0.21337111  0.77191722     0.30600
C1228       C  0.45527170  0.19846688  0.74896321    -0.18900
C1229       C  0.43419991  0.18747590  0.73002659    -0.28300
C1230       C  0.41338565  0.19186877  0.73428633     0.44600
C1231       C  0.43392108  0.23208708  0.80091330     0.05800
O1232       O  0.47573357  0.22261332  0.79096140    -0.56800
H1233       H  0.47131537  0.19510020  0.74635308     0.18800
O1234       O  0.39241005  0.18158508  0.71637170    -0.63500
H1235       H  0.39744918  0.20953903  0.76049482     0.17200
C1236       C  0.45334338  0.25813297  0.80550573     0.29500
C1237       C  0.45207309  0.27139405  0.82924725    -0.24400
C1238       C  0.43112674  0.25917526  0.84819358    -0.23700
C1239       C  0.41153469  0.23315981  0.84324291     0.40900
C1240       C  0.41305780  0.21988866  0.81979399    -0.26100
O1241       O  0.47327241  0.27094108  0.78657687    -0.58000
H1242       H  0.46715725  0.29144104  0.83246131     0.16500
O1243       O  0.39078332  0.22040708  0.86120903    -0.59500
H1244       H  0.39792387  0.19987865  0.81640306     0.15000
H1245       H  0.39651530  0.19536231  0.70227842     0.46900
H1246       H  0.46654204  0.27809217  0.77227757     0.42200
H1247       H  0.39669278  0.21287141  0.87599976     0.45700
H1248       H  0.49097549  0.23680932  0.78107040     0.37200
C1249       C  0.42924269  0.21921076  0.57303362    -0.27100
C1250       C  0.41276315  0.20623195  0.55016833     0.02500
C1251       C  0.39873977  0.17888817  0.54982713     0.30600
C1252       C  0.40138049  0.16496618  0.57209982    -0.18900
C1253       C  0.41847322  0.17796271  0.59460914    -0.28300
C1254       C  0.43226813  0.20537695  0.59503046     0.44600
C1255       C  0.41247393  0.22152260  0.52567167     0.05800
O1256       O  0.38295613  0.16560349  0.52743810    -0.56800
H1257       H  0.39069300  0.14396647  0.57128949     0.18800
O1258       O  0.44910559  0.21890703  0.61663456    -0.63500
H1259       H  0.44050519  0.24022036  0.57338542     0.17200
C1260       C  0.40513909  0.24032878  0.52849383     0.29500
C1261       C  0.40797319  0.25650769  0.50562274    -0.24400
C1262       C  0.40845187  0.24083396  0.98621470    -0.23700
C1263       C  0.41282522  0.22024723  0.98023829     0.40900
C1264       C  0.42192421  0.21878533  0.49966133    -0.26100
O1265       O  0.39521302  0.24300758  0.55352288    -0.58000
H1266       H  0.40269169  0.27117202  0.50837912     0.16500
O1267       O  0.41982322  0.21690690  0.95370349    -0.59500
H1268       H  0.42782370  0.20454409  0.49722322     0.15000
H1269       H  0.43921441  0.22381267  0.62945157     0.46900
H1270       H  0.40983701  0.25833244  0.56286935     0.42200
H1271       H  0.40319698  0.20516848  0.94390317     0.45700
H1272       H  0.36608184  0.16428045  0.53162432     0.37200
C1273       C  0.35236938  0.01806378  0.71438600    -0.27100
C1274       C  0.36166901  0.01725827  0.74140076     0.02500
C1275       C  0.38275599  0.04001484  0.75263246     0.30600
C1276       C  0.39475910  0.06280953  0.73658027    -0.18900
C1277       C  0.38591563  0.06364833  0.70924438    -0.28300
C1278       C  0.36405759  0.04106387  0.69849694     0.44600
C1279       C  0.35097784  0.99212523  0.75649277     0.05800
O1280       O  0.39288305  0.03971001  0.77852706    -0.56800
H1281       H  0.41145184  0.07980810  0.74550617     0.18800
O1282       O  0.35438682  0.04095296  0.67222998    -0.63500
H1283       H  0.33614542  0.00065995  0.70544725     0.17200
C1284       C  0.33998414  0.98820635  0.78367204     0.29500
C1285       C  0.33138731  0.96458963  0.79776075    -0.24400
C1286       C  0.33361782  0.94459662  0.78511834    -0.23700
C1287       C  0.34432060  0.94853372  0.75769393     0.40900
C1288       C  0.35278949  0.97203585  0.74370875    -0.26100
O1289       O  0.33753468  0.00730725  0.79661709    -0.58000
H1290       H  0.32309658  0.96199191  0.81867257     0.16500
O1291       O  0.34671982  0.92959355  0.74424085    -0.59500
H1292       H  0.36124600  0.97475670  0.72285944     0.15000
H1293       H  0.34075544  0.04542456  0.67548014     0.46900
H1294       H  0.31976392  0.00346024  0.79178832     0.42200
H1295       H  0.32975175  0.91848547  0.73475262     0.45700
H1296       H  0.38740448  0.04911742  0.79137776     0.37200
C1297       C  0.58446815  0.81358951  0.80776239    -0.27100
C1298       C  0.56825906  0.78644798  0.80940608     0.02500
C1299       C  0.55227736  0.77575064  0.83329129     0.30600
C1300       C  0.55217897  0.79198519  0.85451812    -0.18900
C1301       C  0.56778426  0.81919410  0.85261055    -0.28300
C1302       C  0.58444033  0.82989851  0.82913094     0.44600
C1303       C  0.56713956  0.76953220  0.78559679     0.05800
O1304       O  0.53611512  0.74941895  0.83577492    -0.56800
H1305       H  0.53928964  0.78308032  0.87234646     0.18800
O1306       O  0.60024979  0.85622489  0.82638411    -0.63500
H1307       H  0.59709820  0.82220307  0.78968593     0.17200
C1308       C  0.56144435  0.77378012  0.75795284     0.29500
C1309       C  0.55933158  0.75717203  0.73594757    -0.24400
C1310       C  0.56288987  0.73604019  0.74074713    -0.23700
C1311       C  0.56882066  0.73186160  0.76835152     0.40900
C1312       C  0.57074321  0.74841888  0.79049531    -0.26100
O1313       O  0.55732061  0.79382606  0.75227556    -0.58000
H1314       H  0.55473981  0.76082227  0.71495759     0.16500
O1315       O  0.57155662  0.71099347  0.77422255    -0.59500
H1316       H  0.57501543  0.74471617  0.81160875     0.15000
H1317       H  0.61693009  0.86036677  0.83536109     0.46900
H1318       H  0.53852594  0.78673879  0.75580909     0.42200
H1319       H  0.59042621  0.71755806  0.77236241     0.45700
H1320       H  0.51866744  0.74595432  0.83005368     0.37200
C1321       C  0.57350700  0.79250403  0.51387390    -0.27100
C1322       C  0.54994627  0.77809311  0.52856102     0.02500
C1323       C  0.52841745  0.78017121  0.52038200     0.30600
C1324       C  0.53092607  0.79700370  0.49845690    -0.18900
C1325       C  0.55650679  0.81957829  0.99129507    -0.28300
C1326       C  0.53546468  0.79456948  0.99723293     0.44600
C1327       C  0.54873636  0.76207970  0.55315853     0.05800
O1328       O  0.50540606  0.76723457  0.53496320    -0.56800
H1329       H  0.59453881  0.84987999  0.00512844     0.18800
O1330       O  0.51393066  0.78310676  0.98011745    -0.63500
H1331       H  0.59020472  0.79097070  0.51969246     0.17200
C1332       C  0.52969376  0.73552194  0.55524477     0.29500
C1333       C  0.52979234  0.72093535  0.57829622    -0.24400
C1334       C  0.54886662  0.73228254  0.59948506    -0.23700
C1335       C  0.56762659  0.75896085  0.59762183     0.40900
C1336       C  0.56745944  0.77353568  0.57462955    -0.26100
O1337       O  0.51115788  0.72343175  0.53467033    -0.58000
H1338       H  0.51517232  0.70050136  0.57926360     0.16500
O1339       O  0.58570068  0.77123271  0.61859615    -0.59500
H1340       H  0.58200992  0.79399898  0.57363057     0.15000
H1341       H  0.50082944  0.78586373  0.98981290     0.46900
H1342       H  0.52019150  0.72061325  0.51882301     0.42200
H1343       H  0.60186305  0.77237791  0.61149175     0.45700
H1344       H  0.49254011  0.75454692  0.52141436     0.37200
C1345       C  0.43825882  0.83909503  0.88552687    -0.27100
C1346       C  0.44023581  0.86205887  0.87562112     0.02500
C1347       C  0.46494828  0.88444438  0.87260753     0.30600
C1348       C  0.48727665  0.88371977  0.87969276    -0.18900
C1349       C  0.48531671  0.86091845  0.89022063    -0.28300
C1350       C  0.46056023  0.83843481  0.89298410     0.44600
C1351       C  0.41642238  0.86240952  0.86819975     0.05800
O1352       O  0.46744988  0.90712913  0.86282619    -0.56800
H1353       H  0.50614292  0.90120435  0.87753786     0.18800
O1354       O  0.45801661  0.81552945  0.90204657    -0.63500
H1355       H  0.41933128  0.82169977  0.88775676     0.17200
C1356       C  0.39979231  0.84626092  0.84673644     0.29500
C1357       C  0.37771554  0.84736429  0.83942550    -0.24400
C1358       C  0.37168293  0.86428481  0.85349860    -0.23700
C1359       C  0.38806111  0.87995636  0.87557811     0.40900
C1360       C  0.41034734  0.87908336  0.88257844    -0.26100
O1361       O  0.40568211  0.83026421  0.83189648    -0.58000
H1362       H  0.36551502  0.83517152  0.82236456     0.16500
O1363       O  0.38272043  0.89641799  0.89025403    -0.59500
H1364       H  0.42290649  0.89139585  0.89937552     0.15000
H1365       H  0.45323853  0.81421126  0.92226946     0.46900
H1366       H  0.39365906  0.81256336  0.83920489     0.42200
H1367       H  0.37201285  0.88614932  0.90654345     0.45700
H1368       H  0.46835193  0.90617944  0.84202319     0.37200
C1369       C  0.76818428  0.22979821  0.94055351    -0.27100
C1370       C  0.78020247  0.22464548  0.96298914     0.02500
C1371       C  0.80729280  0.23508516  0.96250522     0.30600
C1372       C  0.82182916  0.24959891  0.93931941    -0.18900
C1373       C  0.80980189  0.25444752  0.91663675    -0.28300
C1374       C  0.78277874  0.24469907  0.91754069     0.44600
C1375       C  0.76423817  0.20772414  0.98638433     0.05800
O1376       O  0.81973371  0.23118481  0.98459782    -0.56800
H1377       H  0.84262025  0.25718502  0.93914720     0.18800
O1378       O  0.77030631  0.24901360  0.89579082    -0.63500
H1379       H  0.74731720  0.22173412  0.94057271     0.17200
C1380       C  0.73699510  0.23036658  0.48374384     0.29500
C1381       C  0.72242182  0.21108519  0.50364705    -0.24400
C1382       C  0.72880813  0.19217178  0.51052995    -0.23700
C1383       C  0.74976895  0.16870388  0.01443625     0.40900
C1384       C  0.76496986  0.18524028  0.99265403    -0.26100
O1385       O  0.73068741  0.24886850  0.47778329    -0.58000
H1386       H  0.70623706  0.21110537  0.51389576     0.16500
O1387       O  0.75014430  0.14633625  0.01918760    -0.59500
H1388       H  0.77711566  0.18031205  0.98033293     0.15000
H1389       H  0.76562396  0.23467848  0.88222129     0.46900
H1390       H  0.71641212  0.24070747  0.46369868     0.42200
H1391       H  0.77088289  0.18247761  0.51640710     0.45700
H1392       H  0.82283051  0.24474621  0.99862890     0.37200
C1393       C  0.77684382  0.21298443  0.67494876    -0.27100
C1394       C  0.77507815  0.19834629  0.69883365     0.02500
C1395       C  0.75827590  0.17121496  0.69801416     0.30600
C1396       C  0.74283419  0.15931218  0.67410272    -0.18900
C1397       C  0.74382698  0.17410016  0.65063402    -0.28300
C1398       C  0.76168525  0.20111829  0.65094671     0.44600
C1399       C  0.78991016  0.21179823  0.72481082     0.05800
O1400       O  0.75650364  0.15618275  0.72066083    -0.56800
H1401       H  0.72954616  0.13852615  0.67426010     0.18800
O1402       O  0.76420076  0.21628701  0.62812446    -0.63500
H1403       H  0.78956257  0.23386392  0.67513184     0.17200
C1404       C  0.81690622  0.22957202  0.72391773     0.29500
C1405       C  0.83008172  0.24363108  0.74813905    -0.24400
C1406       C  0.81671354  0.24062657  0.77352470    -0.23700
C1407       C  0.78982152  0.22195913  0.77471469     0.40900
C1408       C  0.77669002  0.20790776  0.75048649    -0.26100
O1409       O  0.83064618  0.23305343  0.69950730    -0.58000
H1410       H  0.85073891  0.25754426  0.74672614     0.16500
O1411       O  0.77595049  0.21769047  0.79918461    -0.59500
H1412       H  0.75590705  0.19441143  0.75158504     0.15000
H1413       H  0.77753154  0.21594972  0.61599289     0.46900
H1414       H  0.83516802  0.25042248  0.69243124     0.42200
H1415       H  0.77798524  0.20449927  0.80959129     0.45700
H1416       H  0.77049907  0.15214977  0.71778687     0.37200
C1417       C  0.57722291  0.13521294  0.58784184    -0.27100
C1418       C  0.56873336  0.13110681  0.61601691     0.02500
C1419       C  0.58315758  0.12659170  0.63643220     0.30600
C1420       C  0.60630726  0.12765315  0.62878411    -0.18900
C1421       C  0.61534326  0.13285076  0.60086983    -0.28300
C1422       C  0.60005303  0.13570027  0.58012071     0.44600
C1423       C  0.54482386  0.13153661  0.62366819     0.05800
O1424       O  0.57411761  0.11991423  0.66357298    -0.56800
H1425       H  0.61728850  0.12453925  0.64489711     0.18800
O1426       O  0.60711420  0.13887606  0.55221651    -0.63500
H1427       H  0.56622227  0.13828926  0.57171956     0.17200
C1428       C  0.54455578  0.14618233  0.64681578     0.29500
C1429       C  0.52185287  0.14615015  0.65372621    -0.24400
C1430       C  0.49927856  0.13261780  0.63720451    -0.23700
C1431       C  0.49975066  0.11871938  0.61338667     0.40900
C1432       C  0.52227139  0.11800100  0.60702621    -0.26100
O1433       O  0.56659068  0.16129055  0.66240077    -0.58000
H1434       H  0.52217470  0.15727644  0.67191087     0.16500
O1435       O  0.47844749  0.10582648  0.59612603    -0.59500
H1436       H  0.52211523  0.10685851  0.58893523     0.15000
H1437       H  0.59889861  0.12104314  0.54440873     0.46900
H1438       H  0.57522774  0.17853436  0.65312149     0.42200
H1439       H  0.48075299  0.11857683  0.58140854     0.45700
H1440       H  0.58773848  0.13341198  0.67588256     0.37200
C1441       C  0.66574296  0.03562378  0.50725934    -0.27100
C1442       C  0.63989677  0.01583805  0.51156073     0.02500
C1443       C  0.62473157  0.01933003  0.53182011     0.30600
C1444       C  0.63537349  0.04255184  0.54712835    -0.18900
C1445       C  0.66122416  0.06254672  0.54267836    -0.28300
C1446       C  0.67645483  0.05881130  0.52261856     0.44600
C1447       C  0.62308757  0.98209725  0.99899002     0.05800
O1448       O  0.59941178  0.00025114  0.53656118    -0.56800
H1449       H  0.62324319  0.04500874  0.56230775     0.18800
O1450       O  0.70165835  0.07787155  0.51735408    -0.63500
H1451       H  0.64143513  0.03112638  0.98188326     0.17200
C1452       C  0.59859688  0.96106355  0.00675179     0.29500
C1453       C  0.58584365  0.93920921  0.98924849    -0.24400
C1454       C  0.59672975  0.93788079  0.96337779    -0.23700
C1455       C  0.62059647  0.95948781  0.95493149     0.40900
C1456       C  0.62165878  0.96817903  0.50937320    -0.26100
O1457       O  0.58662510  0.96182001  0.03112314    -0.58000
H1458       H  0.56729147  0.92314373  0.99611815     0.16500
O1459       O  0.60424933  0.92253416  0.50950142    -0.59500
H1460       H  0.62398930  0.96823465  0.53206252     0.15000
H1461       H  0.70043792  0.08901819  0.50271629     0.46900
H1462       H  0.57734147  0.97102415  0.02602803     0.42200
H1463       H  0.62544466  0.96865842  0.91632392     0.45700
H1464       H  0.58876772  0.00519054  0.52502884     0.37200
loop_ 
_geom_bond_atom_site_label_1 
_geom_bond_atom_site_label_2 
_geom_bond_distance 
_geom_bond_site_symmetry_2 
_ccdc_geom_bond_type 
O1            C4   1.267       .  A
O1           Cd6   2.487       .  S
C2           O11   1.268       .  A
C2            O7   1.267       .  A
C2          C650   1.475       .  S
O3            C9   1.271       .  A
O3           Cd6   2.526       .  S
C4           O12   1.264       .  A
C4          C689   1.486       .  S
C5           O10   1.261       .  A
C5            O8   1.272       .  A
C5          C713   1.490       .  S
Cd6          O13   2.418       .  S
Cd6          O12   2.452       .  S
Cd6          O11   2.450       .  S
Cd6           O7   2.439       .  S
Cd6          O10   2.401       .  S
Cd6           O8   2.545       .  S
C9           O13   1.261       .  A
C9          C665   1.489       .  S
O14          C17   1.266       .  A
O14         Cd19   2.461       .  S
C15          O24   1.266       .  A
C15          O20   1.267       .  A
C15         C593   1.486       .  S
O16          C22   1.267       .  A
O16         Cd19   2.532       .  S
C17          O25   1.268       .  A
C17         C617   1.489       .  S
C18          O23   1.269       .  A
C18          O21   1.262       .  A
C18         C722   1.489       .  S
Cd19         O26   2.464       .  S
Cd19         O25   2.489       .  S
Cd19         O24   2.465       .  S
Cd19         O20   2.465       .  S
Cd19         O23   2.520       .  S
Cd19         O21   2.441       .  S
C22          O26   1.263       .  A
C22         C569   1.495       .  S
O27          C30   1.266       .  A
O27         Cd32   2.460       .  S
C28          O37   1.268       .  A
C28          O33   1.266       .  A
C28         C698   1.487       .  S
O29          C35   1.269       .  A
O29         Cd32   2.512       .  S
C30          O38   1.265       .  A
C30         C497   1.479       .  S
C31          O36   1.269       .  A
C31          O34   1.262       .  A
C31         C521   1.494       .  S
Cd32         O39   2.460       .  S
Cd32         O38   2.448       .  S
Cd32         O37   2.491       .  S
Cd32         O33   2.455       .  S
Cd32         O36   2.541       .  S
Cd32         O34   2.441       .  S
C35          O39   1.263       .  A
C35         C545   1.492       .  S
O40          C43   1.266       .  A
O40         Cd45   2.485       .  S
C41          O50   1.266       .  A
C41          O46   1.269       .  A
C41         C473   1.474       .  S
O42          C48   1.270       .  A
O42         Cd45   2.496       .  S
C43          O51   1.266       .  A
C43         C626   1.488       .  S
C44          O49   1.271       .  A
C44          O47   1.263       .  A
C44         C554   1.490       .  S
Cd45         O52   2.435       .  S
Cd45         O51   2.459       .  S
Cd45         O50   2.418       .  S
Cd45         O46   2.454       .  S
Cd45         O49   2.517       .  S
Cd45         O47   2.414       .  S
C48          O52   1.262       .  A
C48         C458   1.484       .  S
O53          C56   1.267       .  A
O53         Cd58   2.475       .  S
C54          O63   1.268       .  A
C54          O59   1.268       .  A
C54         C410   1.483       .  S
O55          C61   1.269       .  A
O55         Cd58   2.504       .  S
C56          O64   1.264       .  A
C56         C362   1.477       .  S
C57          O62   1.264       .  A
C57          O60   1.264       .  A
C57         C377   1.490       .  S
Cd58         O65   2.443       .  S
Cd58         O64   2.405       .  S
Cd58         O63   2.461       .  S
Cd58         O59   2.446       .  S
Cd58         O62   2.477       .  S
Cd58         O60   2.502       .  S
C61          O65   1.261       .  A
C61         C425   1.486       .  S
O66          C69   1.268       .  A
O66         Cd71   2.454       .  S
C67          O76   1.267       .  A
C67          O72   1.265       .  A
C67         C338   1.492       .  S
O68          C74   1.269       .  A
O68         Cd71   2.503       .  S
C69          O77   1.266       .  A
C69         C506   1.475       .  S
C70          O75   1.269       .  A
C70          O73   1.262       .  A
C70         C530   1.489       .  S
Cd71         O78   2.441       .  S
Cd71         O77   2.438       .  S
Cd71         O76   2.489       .  S
Cd71         O72   2.478       .  S
Cd71         O75   2.526       .  S
Cd71         O73   2.439       .  S
C74          O78   1.263       .  A
C74         C434   1.488       .  S
O79          C82   1.269       .  A
O79         Cd84   2.474       .  S
C80          O89   1.268       .  A
C80         O817   1.267       .  A
C80         C329   1.494       .  S
O81          C87   1.263       .  A
O81         Cd84   2.434       .  S
C82          O90   1.265       .  A
C82         C266   1.483       .  S
C83          O88   1.264       .  A
C83          O86   1.269       .  A
C83         C290   1.488       .  S
Cd84         O91   2.535       .  S
Cd84         O90   2.429       .  S
Cd84         O85   2.459       .  S
Cd84        O821   2.486   1_554  S
Cd84        O820   2.508   1_554  S
Cd84        O818   2.444   1_554  S
O85         C812   1.267   1_554  A
O86        Cd816   2.524       .  S
C87          O91   1.271       .  A
C87         C314   1.494       .  S
O88        Cd816   2.453       .  S
O89        Cd816   2.495       .  S
O92          C95   1.267       .  A
O92         Cd97   2.494       .  S
C93         O102   1.267       .  A
C93          O98   1.267       .  A
C93         C401   1.485       .  S
O94         C100   1.263       .  A
O94         Cd97   2.447       .  S
C95         O103   1.264       .  A
C95         C602   1.486       .  S
C96         O101   1.265       .  A
C96          O99   1.263       .  A
C96         C578   1.493       .  S
Cd97        O104   2.548       .  S
Cd97        O103   2.445       .  S
Cd97        O102   2.454       .  S
Cd97         O98   2.469       .  S
Cd97        O101   2.508       .  S
Cd97         O99   2.482       .  S
C100        O104   1.270       .  A
C100        C305   1.494       .  S
O105        C108   1.266       .  A
O105       Cd110   2.448       .  S
C106        O115   1.265       .  A
C106        O111   1.265       .  A
C106        C218   1.481       .  S
O107        C113   1.264       .  A
O107       Cd110   2.478       .  S
C108        O116   1.265       .  A
C108        C641   1.475       .  S
C109        O114   1.266       .  A
C109        O112   1.262       .  A
C109        C674   1.486       .  S
Cd110       O117   2.456       .  S
Cd110       O116   2.432       .  S
Cd110       O115   2.462       .  S
Cd110       O111   2.453       .  S
Cd110       O114   2.489       .  S
Cd110       O112   2.462       .  S
C113        O117   1.263       .  A
C113        C242   1.484       .  S
O118        C121   1.265       .  A
O118       Cd855   2.440       .  S
C119        O128   1.266       .  A
C119        O124   1.265   1_554  A
C119        C185   1.483       .  S
O120        C126   1.268       .  A
O120       Cd855   2.507       .  S
C121        O129   1.266       .  A
C121        C353   1.478       .  S
C122        O127   1.269       .  A
C122        O125   1.261       .  A
C122        C386   1.489       .  S
Cd123       O128   2.468       .  S
Cd123       O124   2.471   1_554  S
Cd123       O127   2.533       .  S
Cd123       O125   2.432       .  S
Cd123       O850   2.444   1_554  S
Cd123       O852   2.511   1_554  S
Cd123       O862   2.480   1_554  S
Cd123       O861   2.450   1_554  S
C126        O130   1.262       .  A
C126        C233   1.485       .  S
O129       Cd855   2.464       .  S
O130       Cd855   2.441       .  S
O131        C134   1.266       .  A
O131       Cd136   2.453       .  S
C132        O141   1.265       .  A
C132        O137   1.267       .  A
C132        C194   1.480       .  S
O133        C139   1.264       .  A
O133       Cd136   2.426       .  S
C134        O142   1.266       .  A
C134        C482   1.475       .  S
C135        O140   1.269       .  A
C135        O138   1.263       .  A
C135        C449   1.486       .  S
Cd136       O143   2.526       .  S
Cd136       O142   2.426       .  S
Cd136       O141   2.452       .  S
Cd136       O137   2.463       .  S
Cd136       O140   2.506       .  S
Cd136       O138   2.435       .  S
C139        O143   1.270       .  A
C139        C161   1.488       .  S
O144        C147   1.263       .  A
O144       Cd149   2.425       .  S
C145        O154   1.267       .  A
C145        O150   1.263       .  A
C145        C257   1.478       .  S
O146        C152   1.268       .  A
O146       Cd149   2.510       .  S
C147        O155   1.270       .  A
C147        C209   1.481       .  S
C148        O153   1.270       .  A
C148        O151   1.261       .  A
C148        C170   1.491       .  S
Cd149       O156   2.450       .  S
Cd149       O155   2.474       .  S
Cd149       O154   2.483       .  S
Cd149       O150   2.420       .  S
Cd149       O153   2.531       .  S
Cd149       O151   2.450       .  S
C152        O156   1.262       .  A
C152        C281   1.488       .  S
C157        C158   1.406       .  A
C157        C162   1.409       .  A
C157        H167   1.083       .  S
C158        C163   1.486   1_455  S
C158        C159   1.404       .  A
C159        C160   1.398       .  A
C159        O164   1.372       .  S
C160        C161   1.406       .  A
C160        H165   1.083       .  S
C161        C162   1.413       .  A
C162        O166   1.371       .  S
C163        C168   1.409       .  A
C163        C172   1.400       .  A
O164        H180   0.990       .  S
O166        H177   0.992       .  S
C168        C169   1.406       .  A
C168        O173   1.372   1_655  S
C169        C170   1.406       .  A
C169        H174   1.083       .  S
C170        C171   1.416       .  A
C171        C172   1.403       .  A
C171        O175   1.372       .  S
C172        H176   1.084       .  S
O173        H178   0.991       .  S
O175        H179   0.992       .  S
C181        C182   1.401       .  A
C181        C186   1.399       .  A
C181        H191   1.084       .  S
C182        C187   1.480       .  S
C182        C183   1.407       .  A
C183        C184   1.402       .  A
C183        O920   1.372   1_554  S
C184        C185   1.407       .  A
C184        H921   1.083   1_554  S
C185        C186   1.412       .  A
C186        O190   1.371       .  S
C187        C192   1.407       .  A
C187        C196   1.402       .  A
O188        C915   1.373       .  S
O188        H936   0.991       .  S
H189        C916   1.083       .  S
O190        H201   0.992       .  S
C192        C193   1.399       .  A
C192        O197   1.371       .  S
C193        C194   1.405       .  A
C193        H198   1.083       .  S
C194        C195   1.412       .  A
C195        C196   1.400       .  A
C195        O199   1.372       .  S
C196        H200   1.084       .  S
O197        H202   0.993       .  S
O199        H203   0.992       .  S
H204        O920   0.990       .  S
C205        C206   1.401       .  A
C205        C210   1.399       .  A
C205        H215   1.084       .  S
C206        C211   1.479       .  S
C206        C207   1.407       .  A
C207        C208   1.400       .  A
C207        O212   1.373       .  S
C208        C209   1.404       .  A
C208        H213   1.083       .  S
C209        C210   1.415       .  A
C210        O214   1.372       .  S
C211        C216   1.407       .  A
C211        C220   1.402       .  A
O212        H228   0.991       .  S
O214        H225   0.992       .  S
C216        C217   1.397       .  A
C216        O221   1.372       .  S
C217        C218   1.405       .  A
C217        H222   1.083       .  S
C218        C219   1.412       .  A
C219        C220   1.401       .  A
C219        O223   1.371       .  S
C220        H224   1.084       .  S
O221        H226   0.992       .  S
O223        H227   0.991       .  S
C229        C230   1.405       .  A
C229        C234   1.404       .  A
C229        H239   1.083   1_455  S
C230        C235   1.484   1_455  S
C230        C231   1.408       .  A
C231        C232   1.398       .  A
C231        O236   1.372       .  S
C232        C233   1.407       .  A
C232        H237   1.084       .  S
C233        C234   1.411       .  A
C234        O970   1.371       .  S
C235        C240   1.407       .  A
C235        C244   1.403       .  A
O236        H252   0.992       .  S
O238        C966   1.371   1_554  S
O238        H249   0.991   1_554  S
C240        C241   1.403       .  A
C240        O245   1.372       .  S
C241        C242   1.408       .  A
C241        H246   1.083       .  S
C242        C243   1.412       .  A
C243        C244   1.398       .  A
C243        O247   1.372       .  S
C244        H248   1.084       .  S
O245        H250   0.991       .  S
O247        H251   0.992       .  S
C253        C254   1.405       .  A
C253        C258   1.398       .  A
C253        H263   1.084       .  S
C254        C259   1.481       .  S
C254        C255   1.407       .  A
C255        C256   1.399       .  A
C255        O260   1.373       .  S
C256        C257   1.406       .  A
C256        H261   1.084       .  S
C257        C258   1.408       .  A
C258        O262   1.371       .  S
C259        C264   1.410       .  A
C259        C268   1.401       .  A
O260        H276   0.992       .  S
O262        H273   0.992       .  S
C264        C265   1.401       .  A
C264        O269   1.372       .  S
C265        C266   1.407       .  A
C265        H270   1.083       .  S
C266        C267   1.412       .  A
C267        C268   1.396       .  A
C267        O271   1.372       .  S
C268        H272   1.084       .  S
O269        H274   0.991       .  S
O271        H275   0.991       .  S
C277        C278   1.404       .  A
C277        C282   1.400       .  A
C277        H287   1.083       .  S
C278        C283   1.493       .  S
C278        C279   1.411       .  A
C279        C280   1.404       .  A
C279        O284   1.371       .  S
C280        C281   1.406       .  A
C280        H285   1.083       .  S
C281        C282   1.413       .  A
C282        O286   1.372       .  S
C283        C288   1.411       .  A
C283        C292   1.406       .  A
O284        H300   0.991       .  S
O286        H297   0.992       .  S
C288        C289   1.401       .  A
C288        O293   1.373       .  S
C289        C290   1.405       .  A
C289        H294   1.084       .  S
C290        C291   1.411       .  A
C291        C292   1.406       .  A
C291        O295   1.371       .  S
C292        H296   1.083       .  S
O293        H298   0.992       .  S
O295        H299   0.992       .  S
C301        C302   1.408       .  A
C301        C306   1.411       .  A
C301        H311   1.083       .  S
C302        C307   1.493       .  S
C302        C303   1.407       .  A
C303        C304   1.401       .  A
C303        O308   1.372       .  S
C304        C305   1.407       .  A
C304        H309   1.083       .  S
C305        C306   1.412       .  A
C306        O310   1.371       .  S
C307        C312   1.413       .  A
C307        C316   1.401       .  A
O308        H324   0.993       .  S
O310        H321   0.992       .  S
C312        C313   1.407       .  A
C312        O317   1.371       .  S
C313        C314   1.407       .  A
C313        H318   1.083       .  S
C314        C315   1.416       .  A
C315        C316   1.401       .  A
C315        O319   1.371       .  S
C316        H320   1.084       .  S
O317        H322   0.991       .  S
O319       H1055   0.992       .  S
H323       O1051   0.992       .  S
C325        C326   1.404       .  A
C325        C330   1.407       .  A
C325        H335   1.084       .  S
C326        C331   1.489       .  S
C326        C327   1.407       .  A
C327        C328   1.403       .  A
C327       O1064   1.371       .  S
C328        C329   1.407       .  A
C328       H1065   1.083       .  S
C329        C330   1.415       .  A
C330        O334   1.372       .  S
C331        C336   1.407       .  A
C331        C340   1.403       .  A
O332       C1059   1.372   1_554  S
O332        H348   0.991       .  S
H333       C1060   1.083       .  S
O334        H345   0.992       .  S
C336        C337   1.405       .  A
C336        O341   1.371       .  S
C337        C338   1.408       .  A
C337        H342   1.083       .  S
C338        C339   1.414       .  A
C339        C340   1.403       .  A
C339        O343   1.371       .  S
C340        H344   1.084       .  S
O341        H346   0.991       .  S
O343        H347   0.991       .  S
C349        C350   1.398       .  A
C349        C354   1.397       .  A
C349        H359   1.084       .  S
C350        C355   1.470       .  S
C350        C351   1.406       .  A
C351        C352   1.399       .  A
C351        O356   1.372       .  S
C352        C353   1.406       .  A
C352        H357   1.083       .  S
C353        C354   1.413       .  A
C354        O358   1.372       .  S
C355        C360   1.403       .  A
C355        C364   1.401       .  A
O356        H372   0.991       .  S
O358        H369   0.992       .  S
C360        C361   1.392       .  A
C360        O365   1.372       .  S
C361        C362   1.405       .  A
C361        H366   1.083       .  S
C362        C363   1.412       .  A
C363        C364   1.401       .  A
C363        O367   1.371       .  S
C364        H368   1.084       .  S
O365        H370   0.992       .  S
O367        H371   0.992       .  S
C373        C374   1.404       .  A
C373        C378   1.406       .  A
C373        H383   1.083       .  S
C374        C379   1.488       .  S
C374        C375   1.409       .  A
C375        C376   1.399       .  A
C375        O380   1.372       .  S
C376        C377   1.405       .  A
C376        H381   1.083       .  S
C377        C378   1.415       .  A
C378        O382   1.371       .  S
C379        C384   1.409       .  A
C379        C388   1.402       .  A
O380        H396   0.991       .  S
O382        H393   0.992       .  S
C384        C385   1.408       .  A
C384        O389   1.371       .  S
C385        C386   1.408       .  A
C385        H390   1.083       .  S
C386        C387   1.413       .  A
C387        C388   1.398       .  A
C387        O391   1.372       .  S
C388        H392   1.084       .  S
O389        H394   0.992       .  S
O391        H395   0.992       .  S
C397        C398   1.402       .  A
C397        C402   1.400       .  A
C397        H407   1.084       .  S
C398        C403   1.479       .  S
C398        C399   1.406       .  A
C399        C400   1.400       .  A
C399        O404   1.372       .  S
C400        C401   1.407       .  A
C400        H405   1.083       .  S
C401        C402   1.413       .  A
C402        O406   1.371       .  S
C403        C408   1.405       .  A
C403        C412   1.403       .  A
O404        H420   0.993       .  S
O406        H417   0.992       .  S
C408        C409   1.398       .  A
C408        O413   1.372       .  S
C409        C410   1.406       .  A
C409        H414   1.083       .  S
C410        C411   1.413       .  A
C411        C412   1.402       .  A
C411        O415   1.372       .  S
C412        H416   1.084       .  S
O413        H418   0.993       .  S
O415        H419   0.991       .  S
C421        C422   1.401       .  A
C421        C426   1.400       .  A
C421        H431   1.084       .  S
C422        C427   1.483       .  S
C422        C423   1.408       .  A
C423        C424   1.404       .  A
C423        O428   1.372       .  S
C424        C425   1.405       .  A
C424        H429   1.083       .  S
C425        C426   1.415       .  A
C426        O430   1.372       .  S
C427        C432   1.406       .  A
C427        C436   1.404       .  A
O428        H444   0.991       .  S
O430        H441   0.992       .  S
C432        C433   1.399       .  A
C432        O437   1.372       .  S
C433        C434   1.408       .  A
C433        H438   1.083       .  S
C434        C435   1.412       .  A
C435        C436   1.404       .  A
C435        O439   1.371       .  S
C436        H440   1.084       .  S
O437        H442   0.991       .  S
O439        H443   0.992       .  S
C445        C446   1.405       .  A
C445        C450   1.406       .  A
C445        H455   1.083       .  S
C446        C451   1.482       .  S
C446       C1179   1.406       .  A
C447        C448   1.399   1_556  A
C447       C1178   1.409       .  A
C447        O452   1.372       .  S
C448        C449   1.407       .  A
C448        H453   1.083       .  S
C449       C1182   1.410   1_554  A
C450       C1181   1.412       .  A
C450        O454   1.371       .  S
C451        C456   1.405       .  A
C451        C460   1.404       .  A
O452       H1200   0.991       .  S
O454       H1197   0.993       .  S
C456        C457   1.401       .  A
C456        O461   1.372       .  S
C457        C458   1.409       .  A
C457        H462   1.084       .  S
C458        C459   1.409       .  A
C459        C460   1.401       .  A
C459        O463   1.371       .  S
C460        H464   1.084       .  S
O461        H466   0.993       .  S
O463        H467   0.991       .  S
H465       O1186   0.993       .  S
H468       O1184   0.992       .  S
C469        C470   1.401       .  A
C469        C474   1.398       .  A
C469        H479   1.084       .  S
C470        C475   1.470       .  S
C470        C471   1.405       .  A
C471        C472   1.397       .  A
C471        O476   1.373       .  S
C472        C473   1.406       .  A
C472        H477   1.084       .  S
C473        C474   1.410       .  A
C474        O478   1.371       .  S
C475        C480   1.405       .  A
C475        C484   1.401       .  A
O476        H492   0.991       .  S
O478        H489   0.992       .  S
C480        C481   1.395       .  A
C480        O485   1.372       .  S
C481        C482   1.405       .  A
C481        H486   1.083       .  S
C482        C483   1.412       .  A
C483        C484   1.398       .  A
C483        O487   1.372       .  S
C484        H488   1.084       .  S
O485        H490   0.992       .  S
O487        H491   0.992       .  S
C493        C494   1.401       .  A
C493        C498   1.397       .  A
C493        H503   1.084       .  S
C494        C499   1.476       .  S
C494        C495   1.406       .  A
C495        C496   1.399       .  A
C495        O500   1.372       .  S
C496        C497   1.406       .  A
C496        H501   1.083       .  S
C497        C498   1.412       .  A
C498        O502   1.371       .  S
C499        C504   1.407       .  A
C499        C508   1.401       .  A
O500        H516   0.992       .  S
O502        H513   0.991       .  S
C504        C505   1.400       .  A
C504        O509   1.371       .  S
C505        C506   1.406       .  A
C505        H510   1.083       .  S
C506        C507   1.410       .  A
C507        C508   1.395       .  A
C507        O511   1.372       .  S
C508        H512   1.084       .  S
O509        H514   0.991       .  S
O511        H515   0.992       .  S
C517        C518   1.402       .  A
C517        C522   1.399       .  A
C517        H527   1.084       .  S
C518        C523   1.493       .  S
C518        C519   1.411       .  A
C519        C520   1.412       .  A
C519        O524   1.372       .  S
C520        C521   1.409       .  A
C520        H525   1.083       .  S
C521        C522   1.413       .  A
C522        O526   1.372       .  S
C523        C528   1.411       .  A
C523        C532   1.403       .  A
O524        H540   0.992       .  S
O526        H537   0.992       .  S
C528        C529   1.408       .  A
C528        O533   1.371       .  S
C529       C1262   1.407   1_554  A
C529        H534   1.083       .  S
C530        C531   1.414       .  A
C530       C1261   1.407       .  A
C531       C1264   1.399       .  A
C531        O535   1.371       .  S
C532       C1263   1.401   1_554  A
C532        H536   1.084   1_554  S
O533        H538   0.991       .  S
O535        H539   0.992       .  S
C541        C542   1.406       .  A
C541        C546   1.403       .  A
C541        H551   1.084   1_545  S
C542        C547   1.491   1_545  S
C542        C543   1.408       .  A
C543        C544   1.405       .  A
C543        O548   1.372       .  S
C544        C545   1.409       .  A
C544        H549   1.083       .  S
C545        C546   1.411       .  A
C546        O550   1.371       .  S
C547        C552   1.412       .  A
C547        C556   1.401       .  A
O548        H564   0.992       .  S
O550        H561   0.992       .  S
C552        C553   1.407       .  A
C552        O557   1.371       .  S
C553        C554   1.407       .  A
C553        H558   1.083       .  S
C554        C555   1.415       .  A
C555        C556   1.397       .  A
C555        O559   1.372       .  S
C556        H560   1.084       .  S
O557        H562   0.992       .  S
O559        H563   0.992       .  S
C565        C566   1.402       .  A
C565        C570   1.401       .  A
C565        H575   1.084       .  S
C566        C571   1.490       .  S
C566        C567   1.409       .  A
C567        C568   1.409       .  A
C567        O572   1.371       .  S
C568        C569   1.409       .  A
C568        H573   1.083       .  S
C569        C570   1.414       .  A
C570        O574   1.371       .  S
C571        C576   1.408       .  A
C571        C580   1.404       .  A
O572        H588   0.990       .  S
O574        H585   0.991       .  S
C576        C577   1.402       .  A
C576        O581   1.372       .  S
C577        C578   1.408       .  A
C577        H582   1.083       .  S
C578        C579   1.414       .  A
C579        C580   1.407       .  A
C579        O583   1.371       .  S
C580        H584   1.083       .  S
O581        H586   0.993       .  S
O583        H587   0.992       .  S
C589        C590   1.404       .  A
C589       C1326   1.398   1_554  A
C589        H599   1.083       .  S
C590        C595   1.487       .  S
C590        C591   1.411       .  A
C591        C592   1.398       .  A
C591        O596   1.372       .  S
C592       C1325   1.403   1_554  A
C592       H1329   1.084       .  S
C593        C594   1.412       .  A
C593       C1324   1.406       .  A
C594       C1321   1.401       .  A
C594        O598   1.372       .  S
C595        C600   1.410       .  A
C595        C604   1.403       .  A
O596        H612   0.992       .  S
H597       C1324   1.083       .  S
O598        H609   0.992       .  S
C600        C601   1.403       .  A
C600        O605   1.373       .  S
C601        C602   1.406       .  A
C601        H606   1.083       .  S
C602        C603   1.413       .  A
C603        C604   1.398       .  A
C603        O607   1.371       .  S
C604        H608   1.083       .  S
O605        H610   0.989       .  S
O607        H611   0.992       .  S
C613        C614   1.401       .  A
C613        C618   1.401       .  A
C613        H623   1.084       .  S
C614        C619   1.482       .  S
C614        C615   1.407       .  A
C615        C616   1.403       .  A
C615        O620   1.372       .  S
C616        C617   1.408       .  A
C616        H621   1.083       .  S
C617        C618   1.414       .  A
C618        O622   1.371       .  S
C619        C624   1.406       .  A
C619        C628   1.403       .  A
O620        H636   0.991       .  S
O622        H633   0.992       .  S
C624        C625   1.399       .  A
C624        O629   1.372       .  S
C625        C626   1.406       .  A
C625        H630   1.083       .  S
C626        C627   1.415       .  A
C627        C628   1.405       .  A
C627        O631   1.371       .  S
C628        H632   1.084       .  S
O629        H634   0.992       .  S
O631        H635   0.991       .  S
C637        C638   1.400       .  A
C637        C642   1.398       .  A
C637        H647   1.084       .  S
C638        C643   1.471       .  S
C638        C639   1.405       .  A
C639        C640   1.395       .  A
C639        O644   1.372       .  S
C640        C641   1.405       .  A
C640        H645   1.084       .  S
C641        C642   1.412       .  A
C642        O646   1.372       .  S
C643        C652   1.401       .  A
C643       C1380   1.403       .  A
O644        H660   0.992       .  S
O646        H657   0.992       .  S
C648        C649   1.398       .  A
C648       C1375   1.406   1_554  A
C648        O653   1.372   1_554  S
C649        C650   1.404       .  A
C649        H654   1.084       .  S
C650       C1383   1.410       .  A
C651        C652   1.396       .  A
C651       C1382   1.411       .  A
C651        O655   1.372       .  S
C652        H656   1.084       .  S
O653        H658   0.992       .  S
O655       H1391   0.992       .  S
H659       O1387   0.992       .  S
C661        C662   1.400       .  A
C661        C666   1.397       .  A
C661        H671   1.084       .  S
C662        C667   1.486       .  S
C662        C663   1.410       .  A
C663        C664   1.406       .  A
C663        O668   1.371       .  S
C664        C665   1.407       .  A
C664        H669   1.083       .  S
C665        C666   1.416       .  A
C666        O670   1.372       .  S
C667        C672   1.410       .  A
C667        C676   1.402       .  A
O668        H684   0.991       .  S
O670        H681   0.991       .  S
C672        C673   1.403       .  A
C672        O677   1.373       .  S
C673        C674   1.406       .  A
C673        H678   1.083       .  S
C674        C675   1.414       .  A
C675        C676   1.400       .  A
C675        O679   1.371       .  S
C676        H680   1.083       .  S
O677        H682   0.992       .  S
O679        H683   0.991       .  S
C685        C686   1.402       .  A
C685        C690   1.400       .  A
C685        H695   1.083       .  S
C686        C691   1.487       .  S
C686        C687   1.409       .  A
C687        C688   1.403       .  A
C687        O692   1.371       .  S
C688        C689   1.407       .  A
C688        H693   1.083       .  S
C689        C690   1.413       .  A
C690        O694   1.372       .  S
C691        C696   1.408       .  A
C691        C700   1.404       .  A
O692        H708   0.990       .  S
O694        H705   0.992       .  S
C696        C697   1.400       .  A
C696        O701   1.372       .  S
C697        C698   1.406       .  A
C697        H702   1.083       .  S
C698        C699   1.413       .  A
C699        C700   1.404       .  A
C699        O703   1.371       .  S
C700        H704   1.084       .  S
O701        H706   0.993       .  S
O703        H707   0.992       .  S
C709        C710   1.400       .  A
C709        C714   1.397       .  A
C709       H1451   1.084   1_554  S
C710       C1447   1.493   1_544  S
C710        C711   1.414       .  A
C711        C712   1.410       .  A
C711        O716   1.373   1_545  S
C712        C713   1.406       .  A
C712        H717   1.083       .  S
C713        C714   1.415       .  A
C714        O718   1.372       .  S
C715       C1442   1.481   1_565  S
C715        C720   1.408       .  A
C715       C1456   1.399       .  A
O716        H732   0.992       .  S
O718        H729   0.992       .  S
H719       C1441   1.083       .  S
C720        C721   1.405       .  A
C720        O725   1.372   1_565  S
C721        C722   1.407       .  A
C721        H726   1.083       .  S
C722        C723   1.415       .  A
C723       C1456   1.399       .  A
C723       O1459   1.371       .  S
C724       C1447   1.408       .  A
C724       C1455   1.405       .  A
C724        H728   1.083       .  S
O725        H730   0.992       .  S
O727       C1455   1.371       .  S
O727       H1463   0.992       .  S
H731       O1459   0.991       .  S
O733        C736   1.268       .  A
O733       Cd738   2.453       .  S
C734        O743   1.266       .  A
C734        O739   1.265       .  A
C734       C1382   1.479       .  S
O735        C741   1.267       .  A
O735       Cd738   2.515       .  S
C736        O744   1.266       .  A
C736       C1421   1.479       .  S
C737        O742   1.267       .  A
C737        O740   1.262       .  A
C737       C1445   1.482       .  S
Cd738       O745   2.454       .  S
Cd738       O744   2.447       .  S
Cd738       O743   2.453       .  S
Cd738       O739   2.452       .  S
Cd738       O742   2.478       .  S
Cd738       O740   2.455       .  S
C741        O745   1.261       .  A
C741       C1397   1.487       .  S
O746        C749   1.265       .  A
O746       Cd751   2.443       .  S
C747        O756   1.267       .  A
C747        O752   1.268       .  A
C747       C1325   1.475       .  S
O748        C754   1.262       .  A
O748       Cd751   2.425       .  S
C749        O757   1.267       .  A
C749       C1349   1.474       .  S
C750        O755   1.264       .  A
C750        O753   1.273       .  A
C750       C1454   1.492       .  S
Cd751       O758   2.541       .  S
Cd751       O757   2.460       .  S
Cd751       O756   2.437       .  S
Cd751       O752   2.443       .  S
Cd751       O755   2.435       .  S
Cd751       O753   2.525       .  S
C754        O758   1.273       .  A
C754       C1301   1.494       .  S
O759        C762   1.268       .  A
O759       Cd764   2.454       .  S
C760        O769   1.267       .  A
C760        O765   1.265       .  A
C760       C1430   1.482       .  S
O761        C767   1.272       .  A
O761       Cd764   2.528       .  S
C762        O770   1.266       .  A
C762       C1229   1.479       .  S
C763        O768   1.271       .  A
C763        O766   1.264       .  A
C763       C1253   1.485       .  S
Cd764       O771   2.431       .  S
Cd764       O770   2.429       .  S
Cd764       O769   2.481       .  S
Cd764       O765   2.427       .  S
Cd764       O768   2.508       .  S
Cd764       O766   2.441       .  S
C767        O771   1.262       .  A
C767       C1277   1.491       .  S
O772        C775   1.265       .  A
O772       Cd777   2.461       .  S
C773        O782   1.268       .  A
C773        O778   1.267       .  A
C773       C1205   1.476       .  S
O774        C780   1.268       .  A
O774       Cd777   2.494       .  S
C775        O783   1.264       .  A
C775       C1358   1.480       .  S
C776        O781   1.269       .  A
C776        O779   1.262       .  A
C776       C1286   1.486       .  S
Cd777       O784   2.443       .  S
Cd777       O783   2.449       .  S
Cd777       O782   2.432       .  S
Cd777       O778   2.433       .  S
Cd777       O781   2.509       .  S
Cd777       O779   2.427       .  S
C780        O784   1.262       .  A
C780       C1190   1.485       .  S
O785        C788   1.266       .  A
O785       Cd790   2.463       .  S
C786        O795   1.267       .  A
C786        O791   1.267       .  A
C786       C1142   1.486       .  S
O787        C793   1.267       .  A
O787       Cd790   2.514       .  S
C788        O796   1.266       .  A
C788       C1094   1.481       .  S
C789        O794   1.262       .  A
C789        O792   1.265       .  A
C789       C1109   1.484       .  S
Cd790       O797   2.442       .  S
Cd790       O796   2.440       .  S
Cd790       O795   2.477       .  S
Cd790       O791   2.455       .  S
Cd790       O794   2.436       .  S
Cd790       O792   2.514       .  S
C793        O797   1.260       .  A
C793       C1157   1.488       .  S
O798        C801   1.268       .  A
O798       Cd803   2.482       .  S
C799        O808   1.267       .  A
C799        O804   1.265       .  A
C799       C1070   1.489       .  S
O800        C806   1.269       .  A
O800       Cd803   2.538       .  S
C801        O809   1.265       .  A
C801       C1238   1.479       .  S
C802        O807   1.270       .  A
C802        O805   1.262       .  A
C802       C1262   1.493       .  S
Cd803       O810   2.449       .  S
Cd803       O809   2.423       .  S
Cd803       O808   2.505       .  S
Cd803       O804   2.456       .  S
Cd803       O807   2.527       .  S
Cd803       O805   2.456       .  S
C806        O810   1.263       .  A
C806       C1166   1.493       .  S
O811        C814   1.267       .  A
O811       Cd816   2.460       .  S
C812        O821   1.267       .  A
C812       C1061   1.489       .  S
O813        C819   1.261       .  A
O813       Cd816   2.433       .  S
C814        O822   1.266       .  A
C814        C998   1.485       .  S
C815        O820   1.271       .  A
C815        O818   1.264       .  A
C815       C1022   1.488       .  S
Cd816       O823   2.543       .  S
Cd816       O822   2.482       .  S
Cd816       O817   2.482       .  S
C819        O823   1.271       .  A
C819       C1046   1.495       .  S
O824        C827   1.268       .  A
O824       Cd829   2.477       .  S
C825        O834   1.266       .  A
C825        O830   1.266       .  A
C825       C1133   1.489       .  S
O826        C832   1.263       .  A
O826       Cd829   2.453       .  S
C827        O835   1.266       .  A
C827       C1334   1.485       .  S
C828        O833   1.270       .  A
C828        O831   1.263       .  A
C828       C1310   1.490       .  S
Cd829       O836   2.518       .  S
Cd829       O835   2.455       .  S
Cd829       O834   2.488       .  S
Cd829       O830   2.459       .  S
Cd829       O833   2.527       .  S
Cd829       O831   2.455       .  S
C832        O836   1.270       .  A
C832       C1037   1.491       .  S
O837        C840   1.265       .  A
O837       Cd842   2.453       .  S
C838        O847   1.267       .  A
C838        O843   1.265       .  A
C838        C950   1.483       .  S
O839        C845   1.270       .  A
O839       Cd842   2.524       .  S
C840        O848   1.265       .  A
C840       C1373   1.474       .  S
C841        O846   1.269       .  A
C841        O844   1.262       .  A
C841       C1406   1.488       .  S
Cd842       O849   2.437       .  S
Cd842       O848   2.440       .  S
Cd842       O847   2.478       .  S
Cd842       O843   2.442       .  S
Cd842       O846   2.502       .  S
Cd842       O844   2.461       .  S
C845        O849   1.263       .  A
C845        C974   1.493       .  S
O850        C853   1.266       .  A
C851        O860   1.267       .  A
C851        O856   1.266       .  A
C851        C917   1.482       .  S
O852        C858   1.267       .  A
C853        O861   1.267       .  A
C853       C1085   1.478       .  S
C854        O859   1.269       .  A
C854        O857   1.262       .  A
C854       C1118   1.478       .  S
Cd855       O860   2.471       .  S
Cd855       O856   2.444       .  S
Cd855       O859   2.502       .  S
Cd855       O857   2.407       .  S
C858        O862   1.262       .  A
C858        C965   1.493       .  S
O863        C866   1.268       .  A
O863       Cd868   2.470       .  S
C864        O873   1.264       .  A
C864        O869   1.265       .  A
C864        C926   1.478       .  S
O865        C871   1.262       .  A
O865       Cd868   2.431       .  S
C866        O874   1.267       .  A
C866       C1214   1.484       .  S
C867        O872   1.270       .  A
C867        O870   1.264       .  A
C867       C1181   1.485       .  S
Cd868       O875   2.524       .  S
Cd868       O874   2.450       .  S
Cd868       O873   2.456       .  S
Cd868       O869   2.471       .  S
Cd868       O872   2.507       .  S
Cd868       O870   2.432       .  S
C871        O875   1.268       .  A
C871        C893   1.489       .  S
O876        C879   1.267       .  A
O876       Cd881   2.448       .  S
C877        O886   1.266       .  A
C877        O882   1.269       .  A
C877        C989   1.480       .  S
O878        C884   1.273       .  A
O878       Cd881   2.511       .  S
C879        O887   1.268       .  A
C879        C941   1.485       .  S
C880        O885   1.272       .  A
C880        O883   1.262       .  A
C880        C902   1.493       .  S
Cd881       O888   2.436       .  S
Cd881       O887   2.472       .  S
Cd881       O886   2.428       .  S
Cd881       O882   2.452       .  S
Cd881       O885   2.527       .  S
Cd881       O883   2.430       .  S
C884        O888   1.263       .  A
C884       C1013   1.491       .  S
C889        C890   1.406       .  A
C889        C894   1.408       .  A
C889        H899   1.083   1_455  S
C890        C895   1.484   1_455  S
C890        C891   1.403       .  A
C891        C892   1.398       .  A
C891        O896   1.372       .  S
C892        C893   1.407       .  A
C892        H897   1.083       .  S
C893        C894   1.413       .  A
C894        O898   1.372       .  S
C895        C900   1.408       .  A
C895        C904   1.399       .  A
O896        H912   0.990       .  S
O898        H909   0.992       .  S
C900        C901   1.407       .  A
C900        O905   1.372       .  S
C901        C902   1.407       .  A
C901        H906   1.083       .  S
C902        C903   1.418       .  A
C903        C904   1.400       .  A
C903        O907   1.372       .  S
C904        H908   1.084       .  S
O905        H910   0.991       .  S
O907        H911   0.992       .  S
C913        C914   1.402       .  A
C913        C918   1.401       .  A
C913        H923   1.084       .  S
C914        C919   1.478       .  S
C914        C915   1.406       .  A
C915        C916   1.399       .  A
C916        C917   1.406       .  A
C917        C918   1.413       .  A
C918        O922   1.371       .  S
C919        C924   1.408       .  A
C919        C928   1.401       .  A
O922        H933   0.991       .  S
C924        C925   1.400       .  A
C924        O929   1.372       .  S
C925        C926   1.405       .  A
C925        H930   1.084       .  S
C926        C927   1.411       .  A
C927        C928   1.399       .  A
C927        O931   1.371       .  S
C928        H932   1.084       .  S
O929        H934   0.993       .  S
O931        H935   0.992       .  S
C937        C938   1.399       .  A
C937        C942   1.399       .  A
C937        H947   1.084       .  S
C938        C943   1.477       .  S
C938        C939   1.406       .  A
C939        C940   1.402       .  A
C939        O944   1.372       .  S
C940        C941   1.408       .  A
C940        H945   1.083       .  S
C941        C942   1.413       .  A
C942        O946   1.371       .  S
C943        C948   1.404       .  A
C943        C952   1.403       .  A
O944        H960   0.991       .  S
O946        H957   0.992       .  S
C948        C949   1.398       .  A
C948        O953   1.371       .  S
C949        C950   1.407       .  A
C949        H954   1.083       .  S
C950        C951   1.413       .  A
C951        C952   1.401       .  A
C951        O955   1.371       .  S
C952        H956   1.084       .  S
O953        H958   0.991       .  S
O955        H959   0.992       .  S
C961        C962   1.405       .  A
C961        C966   1.403       .  A
C961        H971   1.084   1_455  S
C962        C967   1.490   1_455  S
C962        C963   1.407       .  A
C963        C964   1.406       .  A
C963        O968   1.372       .  S
C964        C965   1.410       .  A
C964        H969   1.083       .  S
C965        C966   1.411       .  A
C967        C972   1.410       .  A
C967        C976   1.401       .  A
O968        H984   0.991       .  S
O970        H981   0.990       .  S
C972        C973   1.409       .  A
C972        O977   1.371       .  S
C973        C974   1.409       .  A
C973        H978   1.083       .  S
C974        C975   1.415       .  A
C975        C976   1.398       .  A
C975        O979   1.371       .  S
C976        H980   1.084       .  S
O977        H982   0.991       .  S
O979        H983   0.992       .  S
C985        C986   1.402       .  A
C985        C990   1.399       .  A
C985        H995   1.084       .  S
C986        C991   1.481       .  S
C986        C987   1.408       .  A
C987        C988   1.401       .  A
C987        O992   1.373       .  S
C988        C989   1.405       .  A
C988        H993   1.083       .  S
C989        C990   1.412       .  A
C990        O994   1.372       .  S
C991        C996   1.406       .  A
C991       C1000   1.403       .  A
O992       H1008   0.992       .  S
O994       H1005   0.992       .  S
C996        C997   1.398       .  A
C996       O1001   1.372       .  S
C997        C998   1.405       .  A
C997       H1002   1.083       .  S
C998        C999   1.414       .  A
C999       C1000   1.403       .  A
C999       O1003   1.372       .  S
C1000      H1004   1.084       .  S
O1001      H1006   0.992       .  S
O1003      H1007   0.992       .  S
C1009      C1010   1.402       .  A
C1009      C1014   1.402       .  A
C1009      H1019   1.084       .  S
C1010      C1015   1.487       .  S
C1010      C1011   1.409       .  A
C1011      C1012   1.404       .  A
C1011      O1016   1.371       .  S
C1012      C1013   1.405       .  A
C1012      H1017   1.083       .  S
C1013      C1014   1.417       .  A
C1014      O1018   1.372       .  S
C1015      C1020   1.409       .  A
C1015      C1024   1.402       .  A
O1016      H1032   0.992       .  S
O1018      H1029   0.992       .  S
C1020      C1021   1.405       .  A
C1020      O1025   1.371       .  S
C1021      C1022   1.406       .  A
C1021      H1026   1.083       .  S
C1022      C1023   1.414       .  A
C1023      C1024   1.401       .  A
C1023      O1027   1.372       .  S
C1024      H1028   1.084       .  S
O1025      H1030   0.991       .  S
O1027      H1031   0.992       .  S
C1033      C1034   1.407       .  A
C1033      C1038   1.407       .  A
C1033      H1043   1.083       .  S
C1034      C1039   1.491       .  S
C1034      C1035   1.407       .  A
C1035      C1036   1.402       .  A
C1035      O1040   1.373       .  S
C1036      C1037   1.408       .  A
C1036      H1041   1.083       .  S
C1037      C1038   1.411       .  A
C1038      O1042   1.371       .  S
C1039      C1044   1.412       .  A
C1039      C1048   1.400       .  A
O1040      H1056   0.992       .  S
O1042      H1053   0.992       .  S
C1044      C1045   1.407       .  A
C1044      O1049   1.371       .  S
C1045      C1046   1.407       .  A
C1045      H1050   1.083       .  S
C1046      C1047   1.417       .  A
C1047      C1048   1.400       .  A
C1047      O1051   1.371       .  S
C1048      H1052   1.084       .  S
O1049      H1054   0.991       .  S
C1057      C1058   1.404       .  A
C1057      C1062   1.404       .  A
C1057      H1067   1.084       .  S
C1058      C1063   1.484       .  S
C1058      C1059   1.405       .  A
C1059      C1060   1.401   1_556  A
C1060      C1061   1.407   1_554  A
C1061      C1062   1.414       .  A
C1062      O1066   1.372       .  S
C1063      C1068   1.410       .  A
C1063      C1072   1.399       .  A
O1064      H1080   0.991       .  S
O1066      H1077   0.991       .  S
C1068      C1069   1.406       .  A
C1068      O1073   1.372   1_556  S
C1069      C1070   1.408       .  A
C1069      H1074   1.083       .  S
C1070      C1071   1.413       .  A
C1071      C1072   1.399       .  A
C1071      O1075   1.371       .  S
C1072      H1076   1.084       .  S
O1073      H1078   0.991       .  S
O1075      H1079   0.992       .  S
C1081      C1082   1.400       .  A
C1081      C1086   1.398       .  A
C1081      H1091   1.084       .  S
C1082      C1087   1.472       .  S
C1082      C1083   1.405       .  A
C1083      C1084   1.397       .  A
C1083      O1088   1.372       .  S
C1084      C1085   1.406       .  A
C1084      H1089   1.083       .  S
C1085      C1086   1.413       .  A
C1086      O1090   1.372       .  S
C1087      C1092   1.404       .  A
C1087      C1096   1.400       .  A
O1088      H1104   0.991       .  S
O1090      H1101   0.992       .  S
C1092      C1093   1.397       .  A
C1092      O1097   1.372       .  S
C1093      C1094   1.406       .  A
C1093      H1098   1.083       .  S
C1094      C1095   1.413       .  A
C1095      C1096   1.400       .  A
C1095      O1099   1.371       .  S
C1096      H1100   1.084       .  S
O1097      H1102   0.992       .  S
O1099      H1103   0.992       .  S
C1105      C1106   1.403       .  A
C1105      C1110   1.405       .  A
C1105      H1115   1.083       .  S
C1106      C1111   1.480       .  S
C1106      C1107   1.407       .  A
C1107      C1108   1.393       .  A
C1107      O1112   1.372       .  S
C1108      C1109   1.405       .  A
C1108      H1113   1.083       .  S
C1109      C1110   1.414       .  A
C1110      O1114   1.371       .  S
C1111      C1116   1.408       .  A
C1111      C1120   1.401       .  A
O1112      H1128   0.991       .  S
O1114      H1125   0.992       .  S
C1116      C1117   1.405       .  A
C1116      O1121   1.371       .  S
C1117      C1118   1.406       .  A
C1117      H1122   1.083       .  S
C1118      C1119   1.411       .  A
C1119      C1120   1.394       .  A
C1119      O1123   1.373       .  S
C1120      H1124   1.084       .  S
O1121      H1126   0.991       .  S
O1123      H1127   0.992       .  S
C1129      C1130   1.401       .  A
C1129      C1134   1.398       .  A
C1129      H1139   1.084       .  S
C1130      C1135   1.484       .  S
C1130      C1131   1.408       .  A
C1131      C1132   1.406       .  A
C1131      O1136   1.372       .  S
C1132      C1133   1.409       .  A
C1132      H1137   1.083       .  S
C1133      C1134   1.412       .  A
C1134      O1138   1.371       .  S
C1135      C1140   1.407       .  A
C1135      C1144   1.403       .  A
O1136      H1152   0.993       .  S
O1138      H1149   0.992       .  S
C1140      C1141   1.399       .  A
C1140      O1145   1.372       .  S
C1141      C1142   1.405       .  A
C1141      H1146   1.083       .  S
C1142      C1143   1.413       .  A
C1143      C1144   1.405       .  A
C1143      O1147   1.371       .  S
C1144      H1148   1.084       .  S
O1145      H1150   0.993       .  S
O1147      H1151   0.992       .  S
C1153      C1154   1.400       .  A
C1153      C1158   1.401       .  A
C1153      H1163   1.084       .  S
C1154      C1159   1.487       .  S
C1154      C1155   1.410       .  A
C1155      C1156   1.405       .  A
C1155      O1160   1.373       .  S
C1156      C1157   1.406       .  A
C1156      H1161   1.083       .  S
C1157      C1158   1.416       .  A
C1158      O1162   1.372       .  S
C1159      C1164   1.406       .  A
C1159      C1168   1.406       .  A
O1160      H1176   0.990       .  S
O1162      H1173   0.992       .  S
C1164      C1165   1.398       .  A
C1164      O1169   1.372       .  S
C1165      C1166   1.407       .  A
C1165      H1170   1.083       .  S
C1166      C1167   1.414       .  A
C1167      C1168   1.409       .  A
C1167      O1171   1.371       .  S
C1168      H1172   1.084       .  S
O1169      H1174   0.992       .  S
O1171      H1175   0.993       .  S
C1177      C1178   1.406       .  A
C1177      C1182   1.403       .  A
C1177      H1187   1.083       .  S
C1178      C1183   1.490       .  S
C1179      C1180   1.396       .  A
C1179      O1184   1.372       .  S
C1180      C1181   1.406       .  A
C1180      H1185   1.083       .  S
C1182      O1186   1.371       .  S
C1183      C1188   1.409       .  A
C1183      C1192   1.406       .  A
C1188      C1189   1.401       .  A
C1188      O1193   1.372       .  S
C1189      C1190   1.407       .  A
C1189      H1194   1.084       .  S
C1190      C1191   1.410       .  A
C1191      C1192   1.402       .  A
C1191      O1195   1.371       .  S
C1192      H1196   1.083       .  S
O1193      H1198   0.993       .  S
O1195      H1199   0.990       .  S
C1201      C1202   1.403       .  A
C1201      C1206   1.400       .  A
C1201      H1211   1.084       .  S
C1202      C1207   1.480       .  S
C1202      C1203   1.408       .  A
C1203      C1204   1.397       .  A
C1203      O1208   1.373       .  S
C1204      C1205   1.403       .  A
C1204      H1209   1.084       .  S
C1205      C1206   1.411       .  A
C1206      O1210   1.372       .  S
C1207      C1212   1.407       .  A
C1207      C1216   1.403       .  A
O1208      H1224   0.991       .  S
O1210      H1221   0.992       .  S
C1212      C1213   1.399       .  A
C1212      O1217   1.372       .  S
C1213      C1214   1.406       .  A
C1213      H1218   1.083       .  S
C1214      C1215   1.413       .  A
C1215      C1216   1.400       .  A
C1215      O1219   1.371       .  S
C1216      H1220   1.084       .  S
O1217      H1222   0.992       .  S
O1219      H1223   0.992       .  S
C1225      C1226   1.401       .  A
C1225      C1230   1.397       .  A
C1225      H1235   1.084       .  S
C1226      C1231   1.478       .  S
C1226      C1227   1.406       .  A
C1227      C1228   1.400       .  A
C1227      O1232   1.372       .  S
C1228      C1229   1.406       .  A
C1228      H1233   1.083       .  S
C1229      C1230   1.412       .  A
C1230      O1234   1.372       .  S
C1231      C1236   1.408       .  A
C1231      C1240   1.400       .  A
O1232      H1248   0.992       .  S
O1234      H1245   0.991       .  S
C1236      C1237   1.401       .  A
C1236      O1241   1.372       .  S
C1237      C1238   1.406       .  A
C1237      H1242   1.083       .  S
C1238      C1239   1.412       .  A
C1239      C1240   1.396       .  A
C1239      O1243   1.372       .  S
C1240      H1244   1.084       .  S
O1241      H1246   0.991       .  S
O1243      H1247   0.992       .  S
C1249      C1250   1.402       .  A
C1249      C1254   1.401       .  A
C1249      H1259   1.084       .  S
C1250      C1255   1.486       .  S
C1250      C1251   1.410       .  A
C1251      C1252   1.404       .  A
C1251      O1256   1.371       .  S
C1252      C1253   1.405       .  A
C1252      H1257   1.083       .  S
C1253      C1254   1.414       .  A
C1254      O1258   1.372       .  S
C1255      C1260   1.410       .  A
C1255      C1264   1.400       .  A
O1256      H1272   0.991       .  S
O1258      H1269   0.991       .  S
C1260      C1261   1.407       .  A
C1260      O1265   1.372       .  S
C1261      H1266   1.083       .  S
C1262      C1263   1.415       .  A
C1263      O1267   1.372       .  S
C1264      H1268   1.084       .  S
O1265      H1270   0.992       .  S
O1267      H1271   0.992       .  S
C1273      C1274   1.406       .  A
C1273      C1278   1.406       .  A
C1273      H1283   1.084       .  S
C1274      C1279   1.487   1_545  S
C1274      C1275   1.405       .  A
C1275      C1276   1.401       .  A
C1275      O1280   1.372       .  S
C1276      C1277   1.409       .  A
C1276      H1281   1.083       .  S
C1277      C1278   1.411       .  A
C1278      O1282   1.371       .  S
C1279      C1284   1.410       .  A
C1279      C1288   1.401       .  A
O1280      H1296   0.992       .  S
O1282      H1293   0.991       .  S
C1284      C1285   1.405       .  A
C1284      O1289   1.371   1_565  S
C1285      C1286   1.406       .  A
C1285      H1290   1.083       .  S
C1286      C1287   1.414       .  A
C1287      C1288   1.398       .  A
C1287      O1291   1.372       .  S
C1288      H1292   1.084       .  S
O1289      H1294   0.992       .  S
O1291      H1295   0.992       .  S
C1297      C1298   1.408       .  A
C1297      C1302   1.408       .  A
C1297      H1307   1.083       .  S
C1298      C1303   1.495       .  S
C1298      C1299   1.408       .  A
C1299      C1300   1.401       .  A
C1299      O1304   1.372       .  S
C1300      C1301   1.409       .  A
C1300      H1305   1.083       .  S
C1301      C1302   1.411       .  A
C1302      O1306   1.371       .  S
C1303      C1308   1.409       .  A
C1303      C1312   1.408       .  A
O1304      H1320   0.991       .  S
O1306      H1317   0.992       .  S
C1308      C1309   1.402       .  A
C1308      O1313   1.372       .  S
C1309      C1310   1.407       .  A
C1309      H1314   1.084       .  S
C1310      C1311   1.411       .  A
C1311      C1312   1.408       .  A
C1311      O1315   1.371       .  S
C1312      H1316   1.083       .  S
O1313      H1318   0.992       .  S
O1315      H1319   0.991       .  S
C1321      C1322   1.405       .  A
C1321      H1331   1.084       .  S
C1322      C1327   1.489       .  S
C1322      C1323   1.409       .  A
C1323      C1324   1.403       .  A
C1323      O1328   1.372       .  S
C1325      C1326   1.409       .  A
C1326      O1330   1.372       .  S
C1327      C1332   1.411       .  A
C1327      C1336   1.404       .  A
O1328      H1344   0.992       .  S
O1330      H1341   0.992       .  S
C1332      C1333   1.402       .  A
C1332      O1337   1.371       .  S
C1333      C1334   1.406       .  A
C1333      H1338   1.083       .  S
C1334      C1335   1.412       .  A
C1335      C1336   1.401       .  A
C1335      O1339   1.372       .  S
C1336      H1340   1.084       .  S
O1337      H1342   0.989       .  S
O1339      H1343   0.992       .  S
C1345      C1346   1.402       .  A
C1345      C1350   1.399       .  A
C1345      H1355   1.084       .  S
C1346      C1351   1.477       .  S
C1346      C1347   1.407       .  A
C1347      C1348   1.398       .  A
C1347      O1352   1.372       .  S
C1348      C1349   1.404       .  A
C1348      H1353   1.084       .  S
C1349      C1350   1.410       .  A
C1350      O1354   1.372       .  S
C1351      C1356   1.405       .  A
C1351      C1360   1.402       .  A
O1352      H1368   0.990       .  S
O1354      H1365   0.992       .  S
C1356      C1357   1.398       .  A
C1356      O1361   1.372       .  S
C1357      C1358   1.406       .  A
C1357      H1362   1.083       .  S
C1358      C1359   1.412       .  A
C1359      C1360   1.400       .  A
C1359      O1363   1.371       .  S
C1360      H1364   1.084       .  S
O1361      H1366   0.992       .  S
O1363      H1367   0.992       .  S
C1369      C1370   1.403       .  A
C1369      C1374   1.398       .  A
C1369      H1379   1.083       .  S
C1370      C1375   1.478       .  S
C1370      C1371   1.407       .  A
C1371      C1372   1.396       .  A
C1371      O1376   1.372       .  S
C1372      C1373   1.404       .  A
C1372      H1377   1.084       .  S
C1373      C1374   1.410       .  A
C1374      O1378   1.372       .  S
C1375      C1384   1.403       .  A
O1376      H1392   0.991       .  S
O1378      H1389   0.992       .  S
C1380      C1381   1.400       .  A
C1380      O1385   1.371       .  S
C1381      C1382   1.408       .  A
C1381      H1386   1.083       .  S
C1383      C1384   1.399   1_554  A
C1383      O1387   1.372       .  S
C1384      H1388   1.084       .  S
O1385      H1390   0.993       .  S
C1393      C1394   1.404       .  A
C1393      C1398   1.400       .  A
C1393      H1403   1.083       .  S
C1394      C1399   1.489       .  S
C1394      C1395   1.410       .  A
C1395      C1396   1.404       .  A
C1395      O1400   1.371       .  S
C1396      C1397   1.405       .  A
C1396      H1401   1.083       .  S
C1397      C1398   1.414       .  A
C1398      O1402   1.372       .  S
C1399      C1404   1.409       .  A
C1399      C1408   1.404       .  A
O1400      H1416   0.992       .  S
O1402      H1413   0.991       .  S
C1404      C1405   1.403       .  A
C1404      O1409   1.372       .  S
C1405      C1406   1.404       .  A
C1405      H1410   1.083       .  S
C1406      C1407   1.415       .  A
C1407      C1408   1.402       .  A
C1407      O1411   1.372       .  S
C1408      H1412   1.084       .  S
O1409      H1414   0.992       .  S
O1411      H1415   0.991       .  S
C1417      C1418   1.405       .  A
C1417      C1422   1.399       .  A
C1417      H1427   1.083       .  S
C1418      C1423   1.488       .  S
C1418      C1419   1.411       .  A
C1419      C1420   1.400       .  A
C1419      O1424   1.374       .  S
C1420      C1421   1.403       .  A
C1420      H1425   1.083       .  S
C1421      C1422   1.411       .  A
C1422      O1426   1.372       .  S
C1423      C1428   1.410       .  A
C1423      C1432   1.407       .  A
O1424      H1440   0.992       .  S
O1426      H1437   0.992       .  S
C1428      C1429   1.395       .  A
C1428      O1433   1.371       .  S
C1429      C1430   1.404       .  A
C1429      H1434   1.083       .  S
C1430      C1431   1.411       .  A
C1431      C1432   1.402       .  A
C1431      O1435   1.371       .  S
C1432      H1436   1.083       .  S
O1433      H1438   0.992       .  S
O1435      H1439   0.992       .  S
C1441      C1442   1.402       .  A
C1441      C1446   1.400       .  A
C1442      C1443   1.408       .  A
C1443      C1444   1.401       .  A
C1443      O1448   1.372       .  S
C1444      C1445   1.407       .  A
C1444      H1449   1.084       .  S
C1445      C1446   1.411       .  A
C1446      O1450   1.371       .  S
C1447      C1452   1.409   1_556  A
O1448      H1464   0.992       .  S
O1450      H1461   0.992       .  S
C1452      C1453   1.401   1_554  A
C1452      O1457   1.372       .  S
C1453      C1454   1.409       .  A
C1453      H1458   1.083       .  S
C1454      C1455   1.410       .  A
C1456      H1460   1.084       .  S
O1457      H1462   0.992       .  S
