geometry optimzed in LAMMPS
_audit_creation_date              2020-12-01 
_audit_creation_method            'lammps2cif' 
_symmetry_space_group_name_H-M    'P1' 
_symmetry_Int_Tables_number       1 
_symmetry_cell_setting            triclinic 
loop_ 
_symmetry_equiv_pos_as_xyz 
  x,y,z 
_cell_length_a                    25.69392555 
_cell_length_b                    25.70180106083506 
_cell_length_c                    25.698325718601506 
_cell_angle_alpha                 89.94592604495605 
_cell_angle_beta                  90.09921830229861 
_cell_angle_gamma                 90.05107242698136 
loop_ 
_atom_site_label 
_atom_site_type_symbol 
_atom_site_fract_x 
_atom_site_fract_y 
_atom_site_fract_z 
_atom_site_charge 
C1          C  0.71666327  0.36725167  0.29924704     0.82600
N2          N  0.67618380  0.34578304  0.27182012    -0.75700
C3          C  0.65228945  0.30114236  0.28870456     0.85000
N4          N  0.66957694  0.27801941  0.33355876    -0.75700
C5          C  0.70991888  0.29899054  0.36142012     0.85100
N6          N  0.73317263  0.34344341  0.34383105    -0.77400
C7          C  0.72145012  0.78522677  0.29763153     0.82600
N8          N  0.67894729  0.80297750  0.27055955    -0.75700
C9          C  0.65109064  0.84498303  0.28794076     0.85000
N10         N  0.66620457  0.86919113  0.33273396    -0.75700
C11         C  0.70828012  0.85215949  0.36031784     0.85100
N12         N  0.73575805  0.81018258  0.34249268    -0.77400
C13         C  0.23166809  0.84483768  0.28547818     0.82600
N14         N  0.20353148  0.86254301  0.32703514    -0.75700
C15         C  0.16041363  0.83628034  0.34415206     0.85000
N16         N  0.14559677  0.79166477  0.31889650    -0.75700
C17         C  0.17327793  0.77330818  0.27718163     0.85100
N18         N  0.21615557  0.80026780  0.26085812    -0.77400
C19         C  0.21807787  0.83369151  0.83371348     0.82600
N20         N  0.19655403  0.78897232  0.85331749    -0.75700
C21         C  0.15506761  0.76563185  0.82915911     0.85000
N22         N  0.13509244  0.78756195  0.78505195    -0.75700
C23         C  0.15584548  0.83205636  0.76473454     0.85100
N24         N  0.19734441  0.85494557  0.78932847    -0.77400
C25         C  0.71897380  0.30222013  0.77675560     0.82600
N26         N  0.73357536  0.34490453  0.80513104    -0.75700
C27         C  0.70511594  0.36073926  0.84728774     0.85000
N28         N  0.66165191  0.33322194  0.86092731    -0.75700
C29         C  0.64634862  0.29048956  0.83312234     0.85100
N30         N  0.67530960  0.27526153  0.79116801    -0.77400
C31         C  0.71019224  0.84195506  0.77902987     0.82600
N32         N  0.66423826  0.86081655  0.79817101    -0.75700
C33         C  0.64049459  0.83756904  0.83978806     0.85000
N34         N  0.66321349  0.79522606  0.86233879    -0.75700
C35         C  0.70896765  0.77576161  0.84390704     0.85100
N36         N  0.73230255  0.79934240  0.80221296    -0.77400
C37         C  0.22457737  0.28624758  0.83028297     0.82600
N38         N  0.19825801  0.32725754  0.85171615    -0.75700
C39         C  0.15480647  0.34714677  0.82800954     0.85000
N40         N  0.13786735  0.32542108  0.78245165    -0.75700
C41         C  0.16378823  0.28446296  0.76060632     0.85100
N42         N  0.20695283  0.26517036  0.78482736    -0.77400
C43         C  0.23915832  0.28853045  0.28051312     0.82600
N44         N  0.21614591  0.33155153  0.25980737    -0.75700
C45         C  0.17098738  0.35051058  0.27992481     0.85000
N46         N  0.14852706  0.32583669  0.32134323    -0.75700
C47         C  0.17099020  0.28253448  0.34263010     0.85100
N48         N  0.21637089  0.26406241  0.32192153    -0.77400
O49         O  0.01937982  0.13453722  0.55559334    -0.53100
O50         O  0.82399823  0.24548718  0.50029029    -0.61000
C51         C  0.77755639  0.22981445  0.49164845     0.99800
O52         O  0.17139310  0.00602314  0.54846014    -0.66200
O53         O  0.08712922  0.05674626  0.60919778    -0.64100
C54         C  0.67961354  0.07939978  0.60661455     0.91900
O55         O  0.90905572  0.30903764  0.54744459    -0.66300
C56         C  0.79588613  0.23844286  0.64933890     0.99500
C57         C  0.95606592  0.32403727  0.54165313     0.92400
Ti58       Ti  0.88324012  0.22995654  0.55806535     1.51200
Ti59       Ti  0.98880251  0.90395318  0.55565999     1.51300
O60         O  0.94717293  0.21401733  0.61108087    -0.60100
O61         O  0.78085039  0.07707485  0.52061405    -0.64100
C62         C  0.08763651  0.89898300  0.63308630     0.99900
O63         O  0.85666643  0.99723951  0.56623114    -0.53200
C64         C  0.76638905  0.92422491  0.49266652     0.99600
Ti65       Ti  0.78001171  0.13818296  0.57826201     1.51000
Ti66       Ti  0.00561666  0.21631625  0.55048098     1.53000
Ti67       Ti  0.10160354  0.11567480  0.55114918     1.49300
O68         O  0.76402000  0.96212028  0.64106088    -0.59800
O69         O  0.69938161  0.03622858  0.59381932    -0.66200
O70         O  0.99488262  0.29459516  0.54426616    -0.66300
O71         O  0.86108068  0.14998284  0.56460687    -0.53100
O72         O  0.08160939  0.05547361  0.49617526    -0.64100
O73         O  0.03929781  0.88292981  0.49043552    -0.60900
O74         O  0.93918510  0.20527429  0.49933727    -0.60200
O75         O  0.81548844  0.89457837  0.62620972    -0.61500
O76         O  0.96314314  0.82616044  0.55344031    -0.66300
O77         O  0.83304253  0.25774662  0.62196559    -0.61000
O78         O  0.01036131  0.98433690  0.55739490    -0.53100
C79         C  0.91708356  0.80816032  0.55361263     0.92400
O80         O  0.80049538  0.07637302  0.63179293    -0.64100
O81         O  0.06438045  0.23447688  0.60778370    -0.61500
O82         O  0.04565468  0.87995470  0.61414850    -0.60900
C83         C  0.10468303  0.21358213  0.62775460     0.99800
C84         C  0.77998014  0.91681604  0.65242757     0.99700
C85         C  0.19905519  0.04605820  0.54255466     0.91800
O86         O  0.10866310  0.94001427  0.61489213    -0.60300
O87         O  0.75537284  0.19439434  0.51906330    -0.60300
C88         C  0.08241164  0.89983722  0.47232110     0.99400
Ti89       Ti  0.09231749  0.99477279  0.55327218     1.51000
O90         O  0.81001629  0.90448853  0.50418924    -0.61500
O91         O  0.77593709  0.19431074  0.63952819    -0.60300
O92         O  0.12069494  0.16928867  0.48910379    -0.59900
O93         O  0.87659259  0.83513267  0.55736242    -0.66400
O94         O  0.05726885  0.22808301  0.48522831    -0.61500
O95         O  0.18172256  0.09250275  0.54485601    -0.66000
O96         O  0.74687530  0.96240153  0.51808916    -0.59800
Ti97       Ti  0.86761050  0.91472403  0.56284601     1.53200
O98         O  0.12372499  0.17078000  0.61119826    -0.59800
O99         O  0.92630189  0.92535360  0.50350990    -0.60200
O100        O  0.10543613  0.93882076  0.49217179    -0.60300
C101        C  0.09963465  0.20900671  0.46838125     0.99800
O102        O  0.70089539  0.12336302  0.59820415    -0.66300
Ti103      Ti  0.77607290  0.01618156  0.57792409     1.49500
O104        O  0.93246861  0.91998835  0.61604521    -0.60200
O105        O  0.44279848  0.99109554  0.13446208    -0.53100
O106        O  0.51261821  0.18752182  0.22792808    -0.61000
C107        C  0.53053010  0.22896151  0.20736967     1.00600
O108        O  0.41875282  0.82428553  0.02402145    -0.66200
O109        O  0.37646323  0.92366849  0.06474982    -0.64100
C110        C  0.45258602  0.32584149  0.04282000     0.91900
O111        O  0.45468818  0.11719457  0.29299655    -0.66300
C112        C  0.37183733  0.22898421  0.21102583     0.99500
C113        C  0.45598089  0.07359826  0.31572701     0.92400
Ti114      Ti  0.45052483  0.13247925  0.21281490     1.51200
Ti115      Ti  0.42964310  0.99810776  0.90222564     1.51300
O116        O  0.39225772  0.07245085  0.20338726    -0.60100
O117        O  0.50057094  0.20887844  0.04911280    -0.64100
C118        C  0.34537659  0.90476475  0.90798622     0.99900
O119        O  0.43769957  0.13805661  0.97608444    -0.53200
C120        C  0.51556742  0.21325172  0.89007074     0.99600
Ti121      Ti  0.44821316  0.22833044  0.11217866     1.51000
Ti122      Ti  0.44724781  0.01022103  0.21539328     1.53000
Ti123      Ti  0.43555491  0.90888576  0.12290800     1.49300
O124        O  0.37694220  0.23815931  0.93810145    -0.59800
O125        O  0.44544772  0.29868595  0.00272508    -0.66200
O126        O  0.45303765  0.03008761  0.29321932    -0.66300
O127        O  0.44638942  0.14714468  0.13125294    -0.53100
O128        O  0.48893987  0.91368838  0.05874627    -0.64100
O129        O  0.48944238  0.94212342  0.88497297    -0.60900
O130        O  0.50475577  0.06959289  0.19786189    -0.60200
O131        O  0.37106977  0.17573699  0.87806812    -0.61500
O132        O  0.42556637  0.01152080  0.82388734    -0.66300
O133        O  0.39092713  0.18801128  0.23127620    -0.61000
O134        O  0.43380149  0.98425708  0.98379794    -0.53100
C135        C  0.41936902  0.05186132  0.79683135     0.92400
O136        O  0.38811024  0.21287947  0.05479499    -0.64100
O137        O  0.38433117  0.95866466  0.24030963    -0.61500
O138        O  0.36638288  0.94416445  0.88656388    -0.60900
C139        C  0.36156199  0.91849742  0.22204372     0.99800
C140        C  0.35514104  0.21800638  0.89834783     0.99700
C141        C  0.41519964  0.80525797  0.06950835     0.91800
O142        O  0.36249969  0.88638119  0.95071597    -0.60300
O143        O  0.51188604  0.24769289  0.16516274    -0.60300
C144        C  0.50596856  0.89969827  0.90449673     0.99400
Ti145      Ti  0.42783857  0.90286827  0.00193956     1.51000
O146        O  0.49409432  0.17289059  0.87022857    -0.61500
O147        O  0.38947737  0.24931500  0.16916505    -0.60300
O148        O  0.49882077  0.88839365  0.17543583    -0.59900
O149        O  0.42275014  0.09805027  0.81434755    -0.66400
O150        O  0.50772611  0.95385979  0.23184469    -0.61500
O151        O  0.42564643  0.82959077  0.11081534    -0.66000
O152        O  0.49974132  0.23342593  0.93228400    -0.59800
Ti153      Ti  0.43184734  0.11984365  0.89428517     1.53200
O154        O  0.37619666  0.89723166  0.18015563    -0.59800
O155        O  0.48769354  0.05841996  0.90819381    -0.60200
O156        O  0.48552288  0.87891392  0.94483148    -0.60300
C157        C  0.52204636  0.91002181  0.21368812     0.99800
O158        O  0.45236656  0.30815911  0.08913179    -0.66300
Ti159      Ti  0.44094954  0.21983277  0.99012854     1.49500
O160        O  0.37506631  0.06092641  0.91457765    -0.60200
O161        O  0.85657531  0.56751616  0.99506689    -0.53100
O162        O  0.77237803  0.51685791  0.19872871    -0.61000
C163        C  0.79372381  0.49717363  0.23897825     0.99800
O164        O  0.96130857  0.54961458  0.82359650    -0.66200
O165        O  0.92906824  0.61611922  0.91510244    -0.64100
C166        C  0.97056414  0.57528185  0.32562396     0.91900
O167        O  0.70946975  0.58294381  0.13268556    -0.66300
C168        C  0.80082726  0.65706336  0.23612719     0.99500
C169        C  0.68194380  0.58686745  0.09240605     0.92400
Ti170      Ti  0.78916065  0.57598801  0.14145653     1.51200
Ti171      Ti  0.09129006  0.55499558  0.99056430     1.51300
O172        O  0.80058415  0.62986703  0.07733616    -0.60100
O173        O  0.95028216  0.51303039  0.21354305    -0.64100
C174        C  0.08567168  0.63349290  0.89344312     0.99900
O175        O  0.02473371  0.56408604  0.13349276    -0.53200
C176        C  0.10492538  0.47989192  0.20954496     0.99600
Ti177      Ti  0.89392706  0.57271724  0.23283085     1.51000
Ti178      Ti  0.77656483  0.57357258  0.01900997     1.53000
Ti179      Ti  0.86551164  0.56118460  0.91236932     1.49300
O180        O  0.07328707  0.62556992  0.22545003    -0.59800
O181        O  0.00808994  0.57032031  0.29489551    -0.66200
O182        O  0.69904523  0.58262753  0.04608714    -0.66300
O183        O  0.87099191  0.57026414  0.15215310    -0.53100
O184        O  0.92561773  0.50360162  0.92403330    -0.64100
O185        O  0.10190895  0.49185316  0.93693696    -0.60900
O186        O  0.79178875  0.51779737  0.08053859    -0.60200
O187        O  0.13417904  0.61716942  0.16392433    -0.61500
O188        O  0.17011613  0.54657425  0.99877960    -0.66300
O189        O  0.77905699  0.63894558  0.19561186    -0.61000
O190        O  0.00914568  0.56201503  0.98133846    -0.53100
C191        C  0.19831629  0.53680513  0.03753322     0.92400
O192        O  0.95535771  0.62556173  0.20917517    -0.64100
O193        O  0.75887419  0.63455507  0.96309909    -0.61500
O194        O  0.10790769  0.61436074  0.93348159    -0.60900
C195        C  0.77497168  0.64738720  0.91784088     0.99800
C196        C  0.11540665  0.64012310  0.20411957     0.99700
C197        C  0.91561684  0.54401664  0.80569814     0.91800
O198        O  0.04252717  0.61576435  0.87569584    -0.60300
O199        O  0.83715808  0.51386780  0.25722372    -0.60300
C200        C  0.07939427  0.47314332  0.89733000     0.99400
Ti201      Ti  0.98667341  0.55678453  0.90095461     1.51000
O202        O  0.12262258  0.49416053  0.16565145    -0.61500
O203        O  0.84254380  0.63718551  0.25482879    -0.60300
O204        O  0.80794756  0.50187936  0.90440733    -0.59900
O205        O  0.18373827  0.54214895  0.08468711    -0.66400
O206        O  0.74820067  0.51165366  0.96674307    -0.61500
O207        O  0.87449891  0.55112026  0.83173838    -0.66000
O208        O  0.06756336  0.50320519  0.23181189    -0.59800
Ti209      Ti  0.10558307  0.55576935  0.11130524     1.53200
O210        O  0.81135680  0.62307520  0.89458281    -0.59800
O211        O  0.07993400  0.50037890  0.05352574    -0.60200
O212        O  0.03724503  0.49238508  0.87992077    -0.60300
C213        C  0.76584359  0.48841982  0.92622872     0.99800
O214        O  0.92277460  0.57580965  0.31169492    -0.66300
Ti215      Ti  0.01504249  0.56656697  0.21588622     1.49500
O216        O  0.09106711  0.61276951  0.05110150    -0.60200
N217        N  0.07863665  0.51746999  0.50955458    -0.34300
N218        N  0.01537757  0.61363044  0.51615778    -0.54800
N219        N  0.95187051  0.58474002  0.60020949    -0.34300
N220        N  0.00573187  0.49245508  0.59990350    -0.54800
C221        C  0.07926959  0.53472504  0.45999503     0.29300
C222        C  0.07287538  0.46544048  0.50682755     0.29300
C223        C  0.92268867  0.62187907  0.57867566     0.29300
C224        C  0.92020965  0.55472865  0.62849893     0.29300
C225        C  0.05459107  0.62255090  0.48306275     0.37900
C226        C  0.99283763  0.65928310  0.52614779     0.37900
C227        C  0.04326450  0.45678612  0.59597971     0.37900
C228        C  0.98430120  0.48805637  0.64708751     0.37900
C229        C  0.08091949  0.49295570  0.42579647    -0.19600
C230        C  0.07652406  0.44883827  0.45565442    -0.19600
C231        C  0.87127602  0.61669315  0.59439152    -0.19600
C232        C  0.86977255  0.57373636  0.62663695    -0.19600
C233        C  0.05765148  0.67529914  0.47216864    -0.20600
C234        C  0.01860778  0.69893720  0.50006070    -0.20600
C235        C  0.04525468  0.42798325  0.64172676    -0.20600
C236        C  0.00838779  0.44877321  0.67494377    -0.20600
C237        C  0.06374621  0.58507497  0.44582960    -0.16000
C238        C  0.05166646  0.43574512  0.54720243    -0.16000
C239        C  0.93869797  0.51477716  0.65982813    -0.16000
C240        C  0.94390354  0.66219573  0.54968767    -0.16000
H241        H  0.07871869  0.49451755  0.38373550     0.16900
H242        H  0.07057247  0.40972824  0.44118824     0.16900
H243        H  0.83887854  0.64177864  0.58462489     0.16900
H244        H  0.83607379  0.55871018  0.64693288     0.16900
H245        H  0.08069427  0.69349334  0.44196230     0.15200
H246        H  0.00742077  0.73939824  0.49713246     0.15200
H247        H  0.06665734  0.39225525  0.64800325     0.15200
H248        H  0.99727947  0.43362432  0.71263258     0.15200
H249        H  0.07372115  0.54014289  0.54284036     0.28500
H250        H  0.99236251  0.58281560  0.59953060     0.28500
N251        N  0.50081619  0.01006972  0.54118044    -0.34300
N252        N  0.47474563  0.97144718  0.63950939    -0.54800
N253        N  0.36923675  0.93112428  0.60934984    -0.34300
N254        N  0.40199038  0.97240892  0.50771911    -0.54800
C255        C  0.53005280  0.04037439  0.57225049     0.29300
C256        C  0.49282558  0.03743249  0.49747501     0.29300
C257        C  0.36341440  0.93997432  0.66066189     0.29300
C258        C  0.32275334  0.94206089  0.58754597     0.29300
C259        C  0.52319737  0.98706980  0.65079685     0.37900
C260        C  0.45638717  0.94525863  0.68056854     0.37900
C261        C  0.42254103  0.98386143  0.46124289     0.37900
C262        C  0.35532695  0.95086540  0.49864792     0.37900
C263        C  0.54210593  0.08676198  0.54719095    -0.19600
C264        C  0.51872003  0.08471137  0.49954373    -0.19600
C265        C  0.31175321  0.94975608  0.67241441    -0.19600
C266        C  0.28575273  0.95079218  0.62591539    -0.19600
C267        C  0.53778045  0.96925680  0.69940101    -0.20600
C268        C  0.49513570  0.94267806  0.71844025    -0.20600
C269        C  0.38918068  0.96824730  0.42164544    -0.20600
C270        C  0.34589673  0.94815075  0.44567774    -0.20600
C271        C  0.54723611  0.02629252  0.62191555    -0.16000
C272        C  0.46227840  0.02067831  0.45618326    -0.16000
C273        C  0.31617243  0.95599611  0.53515586    -0.16000
C274        C  0.40454095  0.95328941  0.69349695    -0.16000
H275        H  0.56448420  0.11924379  0.56192915     0.16900
H276        H  0.51951325  0.11512124  0.47038410     0.16900
H277        H  0.29590795  0.96083892  0.70981528     0.16900
H278        H  0.24560396  0.96234828  0.62055811     0.16900
H279        H  0.57269341  0.97913463  0.72086054     0.15200
H280        H  0.49018296  0.93023395  0.75839818     0.15200
H281        H  0.39292598  0.97604293  0.38041980     0.15200
H282        H  0.30945241  0.93824657  0.42690618     0.15200
H283        H  0.48821464  0.97219878  0.54826721     0.28500
H284        H  0.40438980  0.92609522  0.59002396     0.28500
N285        N  0.49069819  0.51781224  0.02428979    -0.34300
N286        N  0.44362732  0.59716244  0.08203392    -0.54800
N287        N  0.35699150  0.58678254  0.01876099    -0.34300
N288        N  0.40577986  0.50724051  0.93962572    -0.54800
C289        C  0.53076841  0.54848624  0.03710521     0.29300
C290        C  0.50391304  0.49361550  0.98004820     0.29300
C291        C  0.35526120  0.63735614  0.03115238     0.29300
C292        C  0.33502894  0.58167081  0.97166005     0.29300
C293        C  0.48854765  0.59530952  0.10797961     0.37900
C294        C  0.41295001  0.63109643  0.10638969     0.37900
C295        C  0.42881178  0.46042262  0.93689408     0.37900
C296        C  0.35445378  0.49833507  0.93515351     0.37900
C297        C  0.57002614  0.54373535  0.00002146    -0.19600
C298        C  0.55265462  0.50843008  0.96357062    -0.19600
C299        C  0.33082782  0.66498059  0.99138093    -0.19600
C300        C  0.31733891  0.62909305  0.95370334    -0.19600
C301        C  0.48645505  0.62667484  0.15171331    -0.20600
C302        C  0.43793793  0.64964587  0.15075857    -0.20600
C303        C  0.39224712  0.42200875  0.92616560    -0.20600
C304        C  0.34463929  0.44628128  0.92548837    -0.20600
C305        C  0.53304434  0.57682547  0.08357217    -0.16000
C306        C  0.47615370  0.45152417  0.96214472    -0.16000
C307        C  0.31836501  0.53355182  0.95456912    -0.16000
C308        C  0.37516815  0.65772367  0.07774888    -0.16000
H309        H  0.60749761  0.56281880  0.99958768     0.16900
H310        H  0.57419427  0.49336373  0.93072636     0.16900
H311        H  0.32216501  0.70617653  0.99041523     0.16900
H312        H  0.29454552  0.63634026  0.91899881     0.16900
H313        H  0.51809707  0.63631356  0.17785248     0.15200
H314        H  0.42519594  0.68107018  0.17568677     0.15200
H315        H  0.39854075  0.38035775  0.92606397     0.15200
H316        H  0.30705271  0.42725769  0.92413292     0.15200
H317        H  0.45736902  0.51017120  0.04621850     0.28500
H318        H  0.36930914  0.55593792  0.04223328     0.28500
C319        C  0.28064783  0.51417122  0.99059947    -0.10900
C320        C  0.24777114  0.51812025  0.02330610    -0.12500
C321        C  0.58278449  0.59261864  0.10043317    -0.10900
C322        C  0.62876257  0.59490904  0.10039907    -0.12500
C323        C  0.02240836  0.58555533  0.40800223    -0.10900
C324        C  0.98751926  0.58195205  0.37720933    -0.12500
C325        C  0.91106763  0.52598475  0.75437474    -0.10900
C326        C  0.91834177  0.51283126  0.71073810    -0.12500
C327        C  0.46462129  0.37780086  0.03140293    -0.10900
C328        C  0.47368516  0.41174483  0.00100585    -0.12500
C329        C  0.37845823  0.71240737  0.08083085    -0.10900
C330        C  0.39485634  0.75517954  0.07553056    -0.12500
C331        C  0.46109915  0.07130811  0.36938415    -0.10900
C332        C  0.46325763  0.05129388  0.41064810    -0.12500
C333        C  0.39836735  0.00310059  0.71820147    -0.10900
C334        C  0.40527093  0.04023034  0.74538566    -0.12500
C335        C  0.63132025  0.07568041  0.63242454    -0.10900
C336        C  0.59073623  0.05486266  0.64106624    -0.12500
C337        C  0.28342737  0.00066596  0.52718020    -0.10900
C338        C  0.25135472  0.03419004  0.53132357    -0.12500
C339        C  0.91721665  0.70958831  0.54758447    -0.10900
C340        C  0.91038915  0.75478155  0.54950520    -0.12500
C341        C  0.00737949  0.40476052  0.53276462    -0.10900
C342        C  0.97083064  0.37581615  0.53246899    -0.12500
C343        C  0.12521501  0.23410987  0.42375772    -0.10900
C344        C  0.14629048  0.25591750  0.38688715    -0.12500
C345        C  0.14691657  0.39649544  0.25651356    -0.10900
C346        C  0.12798191  0.43467023  0.23536403    -0.12500
C347        C  0.28725885  0.26865924  0.25749625    -0.10900
C348        C  0.32660435  0.25222983  0.23649663    -0.12500
C349        C  0.12846928  0.23931631  0.67286571    -0.10900
C350        C  0.14499789  0.26049958  0.71225749    -0.12500
C351        C  0.12646939  0.39125922  0.85128451    -0.10900
C352        C  0.10364540  0.42821509  0.87122876    -0.12500
C353        C  0.27103342  0.26432982  0.85568587    -0.10900
C354        C  0.30959296  0.24407176  0.87534020    -0.12500
C355        C  0.73565873  0.86749978  0.73427570    -0.10900
C356        C  0.75635039  0.88943567  0.69708650    -0.12500
C357        C  0.75132991  0.69231599  0.89142827    -0.10900
C358        C  0.73258413  0.73018164  0.86920070    -0.12500
C359        C  0.55159496  0.87533157  0.88033795    -0.10900
C360        C  0.59155733  0.85806852  0.86094917    -0.12500
C361        C  0.75006796  0.28480199  0.73161659    -0.10900
C362        C  0.77366512  0.26697562  0.69396299    -0.12500
C363        C  0.72163730  0.40629192  0.87819136    -0.10900
C364        C  0.73821959  0.44398759  0.90260572    -0.12500
C365        C  0.56094373  0.23776851  0.86486038    -0.10900
C366        C  0.59965559  0.26095040  0.84888806    -0.12500
C367        C  0.13294346  0.85504837  0.71733620    -0.10900
C368        C  0.11240043  0.87382340  0.67838436    -0.12500
C369        C  0.13136841  0.71788595  0.85046189    -0.10900
C370        C  0.11042843  0.67875213  0.86831651    -0.12500
C371        C  0.26285302  0.85878654  0.86025543    -0.10900
C372        C  0.30015412  0.87964420  0.88226441    -0.12500
C373        C  0.13044295  0.85608394  0.38922729    -0.10900
C374        C  0.10707232  0.87435437  0.42691090    -0.12500
C375        C  0.14133502  0.68598899  0.22726595    -0.10900
C376        C  0.15690730  0.72541261  0.24968717    -0.12500
C377        C  0.27794619  0.87340790  0.26696787    -0.10900
C378        C  0.31638520  0.89550514  0.24895689    -0.12500
C379        C  0.72408881  0.87933999  0.40817756    -0.10900
C380        C  0.73954922  0.90159696  0.44749957    -0.12500
C381        C  0.77591305  0.70246685  0.26124935    -0.10900
C382        C  0.75170372  0.74006492  0.27853137    -0.12500
C383        C  0.60544256  0.86468562  0.25918178    -0.10900
C384        C  0.56727054  0.88399298  0.23769835    -0.12500
C385        C  0.74938945  0.25311546  0.44741736    -0.10900
C386        C  0.72971505  0.27332749  0.40877710    -0.12500
C387        C  0.76713504  0.45262233  0.26368306    -0.10900
C388        C  0.74368054  0.41431675  0.28029682    -0.12500
C389        C  0.57384701  0.25609396  0.23405929    -0.10900
C390        C  0.60939784  0.27731550  0.25836609    -0.12500
loop_ 
_geom_bond_atom_site_label_1 
_geom_bond_atom_site_label_2 
_geom_bond_distance 
_geom_bond_site_symmetry_2 
_ccdc_geom_bond_type 
C1            N2   1.371       .  A
C1            N6   1.365       .  A
C1          C388   1.477       .  S
N2            C3   1.371       .  A
C3            N4   1.370       .  A
C3          C390   1.481       .  S
N4            C5   1.369       .  A
C5            N6   1.366       .  A
C5          C386   1.474       .  S
C7            N8   1.372       .  A
C7           N12   1.369       .  A
C7          C382   1.482       .  S
N8            C9   1.371       .  A
C9           N10   1.365       .  A
C9          C383   1.475       .  S
N10          C11   1.364       .  A
C11          N12   1.370       .  A
C11         C379   1.471       .  S
C13          N14   1.369       .  A
C13          N18   1.368       .  A
C13         C377   1.476       .  S
N14          C15   1.370       .  A
C15          N16   1.371       .  A
C15         C373   1.483       .  S
N16          C17   1.372       .  A
C17          N18   1.367       .  A
C17         C376   1.480       .  S
C19          N20   1.371       .  A
C19          N24   1.371       .  A
C19         C371   1.484       .  S
N20          C21   1.371       .  A
C21          N22   1.365       .  A
C21         C369   1.475       .  S
N22          C23   1.365       .  A
C23          N24   1.371       .  A
C23         C367   1.475       .  S
C25          N26   1.370       .  A
C25          N30   1.369       .  A
C25         C361   1.480       .  S
N26          C27   1.370       .  A
C27          N28   1.367       .  A
C27         C363   1.477       .  S
N28          C29   1.368       .  A
C29          N30   1.369       .  A
C29         C366   1.476       .  S
C31          N32   1.369       .  A
C31          N36   1.370       .  A
C31         C355   1.477       .  S
N32          C33   1.369       .  A
C33          N34   1.364       .  A
C33         C360   1.469       .  S
N34          C35   1.364       .  A
C35          N36   1.369       .  A
C35         C358   1.470       .  S
C37          N38   1.369       .  A
C37          N42   1.365       .  A
C37         C353   1.472       .  S
N38          C39   1.370       .  A
C39          N40   1.368       .  A
C39         C351   1.476       .  S
N40          C41   1.368       .  A
C41          N42   1.364       .  A
C41         C350   1.468       .  S
C43          N44   1.362       .  A
C43          N48   1.368       .  A
C43         C347   1.464       .  S
N44          C45   1.362       .  A
C45          N46   1.367       .  A
C45         C345   1.463       .  S
N46          C47   1.367       .  A
C47          N48   1.368       .  A
C47         C344   1.471       .  S
O49         Ti67   2.171       .  S
O49         Ti66   2.136       .  S
O50          C51   1.278       .  A
O50         Ti58   2.162       .  S
C51         C385   1.473       .  S
C51          O87   1.284       .  A
O52          C85   1.259       .  A
O52         Ti89   2.056   1_545  S
O53         Ti89   2.151   1_545  S
O53         Ti67   2.157       .  S
C54         C335   1.411       .  S
C54          O69   1.265       .  A
C54         O102   1.273       .  A
O55          C57   1.276       .  A
O55         Ti58   2.155       .  S
C56         C362   1.478       .  S
C56          O91   1.270       .  A
C56          O77   1.286       .  A
C57         C342   1.403       .  S
C57          O70   1.254       .  A
Ti58         O71   2.139       .  S
Ti58         O74   2.181       .  S
Ti58         O60   2.171       .  S
Ti58         O77   2.209       .  S
Ti59        O104   2.164       .  S
Ti59         O99   2.161       .  S
Ti59         O78   2.139   1_655  S
Ti59         O76   2.106       .  S
Ti59         O73   2.190   1_655  S
Ti59         O82   2.183   1_655  S
O60         Ti66   2.166   1_655  S
O61        Ti103   2.152       .  S
O61         Ti65   2.160       .  S
C62         C368   1.475       .  S
C62          O82   1.280       .  A
C62          O86   1.273       .  A
O63         Ti97   2.141       .  S
O63        Ti103   2.149   1_565  S
C64         C380   1.469       .  S
C64          O90   1.265       .  A
C64          O96   1.282       .  A
Ti65         O80   2.165       .  S
Ti65         O71   2.134       .  S
Ti65        O102   2.131       .  S
Ti65         O91   2.139       .  S
Ti65         O87   2.190       .  S
Ti66         O74   2.171   1_455  S
Ti66         O94   2.161       .  S
Ti66         O70   2.037   1_455  S
Ti66         O81   2.158       .  S
Ti67         O72   2.157       .  S
Ti67         O98   2.170       .  S
Ti67         O92   2.163       .  S
Ti67         O95   2.150       .  S
O68          C84   1.269       .  A
O68        Ti103   2.158   1_565  S
O69        Ti103   2.079       .  S
O72         Ti89   2.158   1_545  S
O73          C88   1.278       .  A
O75          C84   1.272       .  A
O75         Ti97   2.172       .  S
O76          C79   1.270       .  A
O78         Ti89   2.125       .  S
C79         C340   1.387       .  S
C79          O93   1.255       .  A
O80        Ti103   2.169       .  S
O81          C83   1.274       .  A
C83         C349   1.467       .  S
C83          O98   1.278       .  A
C84         C356   1.477       .  S
C85         C338   1.409       .  S
C85          O95   1.276       .  A
O86         Ti89   2.159       .  S
C88         C374   1.482       .  S
C88         O100   1.270       .  A
Ti89        O100   2.157       .  S
O90         Ti97   2.127       .  S
O92         C101   1.272       .  A
O93         Ti97   2.064       .  S
O94         C101   1.271       .  A
O96        Ti103   2.199   1_565  S
Ti97        O104   2.158       .  S
Ti97         O99   2.163       .  S
C101        C343   1.471       .  S
O105       Ti123   2.142       .  S
O105       Ti122   2.140   1_565  S
O106        C107   1.274       .  A
O106       Ti114   2.166       .  S
C107        C389   1.481       .  S
C107        O143   1.279       .  A
O108        C141   1.270       .  A
O108       Ti145   2.110       .  S
O109       Ti145   2.155       .  S
O109       Ti123   2.162       .  S
C110        C327   1.401       .  S
C110        O125   1.258       .  A
C110        O158   1.274       .  A
O111        C113   1.264       .  A
O111       Ti114   2.100       .  S
C112        C348   1.463       .  S
C112        O147   1.279       .  A
C112        O133   1.273       .  A
C113        C331   1.386       .  S
C113        O126   1.262       .  A
Ti114       O127   2.132       .  S
Ti114       O130   2.170       .  S
Ti114       O116   2.162       .  S
Ti114       O133   2.148       .  S
Ti115       O160   2.163   1_565  S
Ti115       O155   2.156   1_565  S
Ti115       O134   2.128       .  S
Ti115       O132   2.045   1_565  S
Ti115       O129   2.153       .  S
Ti115       O138   2.173       .  S
O116       Ti122   2.157       .  S
O117       Ti159   2.172   1_554  S
O117       Ti121   2.167       .  S
C118        C372   1.483       .  S
C118        O138   1.272       .  A
C118        O142   1.273       .  A
O119       Ti153   2.159       .  S
O119       Ti159   2.134       .  S
C120        C365   1.475       .  S
C120        O146   1.280       .  A
C120        O152   1.270       .  A
Ti121       O136   2.170       .  S
Ti121       O127   2.143       .  S
Ti121       O158   2.138       .  S
Ti121       O147   2.173       .  S
Ti121       O143   2.184       .  S
Ti122       O130   2.171       .  S
Ti122       O150   2.166   1_545  S
Ti122       O126   2.070       .  S
Ti122       O137   2.186   1_545  S
Ti123       O128   2.150       .  S
Ti123       O154   2.142       .  S
Ti123       O148   2.176       .  S
Ti123       O151   2.077       .  S
O124        C140   1.274       .  A
O124       Ti159   2.170       .  S
O125       Ti159   2.056   1_554  S
O128       Ti145   2.160       .  S
O129        C144   1.273       .  A
O131        C140   1.274       .  A
O131       Ti153   2.163       .  S
O132        C135   1.258       .  A
O134       Ti145   2.148   1_556  S
C135        C334   1.403       .  S
C135        O149   1.273       .  A
O136       Ti159   2.155   1_554  S
O137        C139   1.276       .  A
C139        C378   1.475       .  S
C139        O154   1.266       .  A
C140        C354   1.472       .  S
C141        C330   1.397       .  S
C141        O151   1.261       .  A
O142       Ti145   2.173   1_556  S
C144        C359   1.469       .  S
C144        O156   1.279       .  A
Ti145       O156   2.177   1_554  S
O146       Ti153   2.190       .  S
O148        C157   1.277       .  A
O149       Ti153   2.142       .  S
O150        C157   1.275       .  A
O152       Ti159   2.149       .  S
Ti153       O160   2.166       .  S
Ti153       O155   2.163       .  S
C157        C384   1.475       .  S
O161       Ti179   2.144       .  S
O161       Ti178   2.153   1_556  S
O162        C163   1.274       .  A
O162       Ti170   2.158       .  S
C163        C387   1.476       .  S
C163        O199   1.283       .  A
O164        C197   1.268       .  A
O164       Ti201   2.099       .  S
O165       Ti201   2.158       .  S
O165       Ti179   2.159       .  S
C166        C324   1.405       .  S
C166        O181   1.254   1_655  A
C166        O214   1.278       .  A
O167        C169   1.257       .  A
O167       Ti170   2.067       .  S
C168        C381   1.481       .  S
C168        O203   1.280       .  A
C168        O189   1.270       .  A
C169        C322   1.398       .  S
C169        O182   1.274       .  A
Ti170       O183   2.125       .  S
Ti170       O186   2.167       .  S
Ti170       O172   2.172       .  S
Ti170       O189   2.151       .  S
Ti171       O216   2.152   1_556  S
Ti171       O211   2.161   1_556  S
Ti171       O190   2.131       .  S
Ti171       O188   2.048       .  S
Ti171       O185   2.148       .  S
Ti171       O194   2.158       .  S
O172       Ti178   2.173       .  S
O173       Ti215   2.159   1_655  S
O173       Ti177   2.169       .  S
C174        C370   1.474       .  S
C174        O194   1.275       .  A
C174        O198   1.282       .  A
O175       Ti209   2.166       .  S
O175       Ti215   2.133       .  S
C176        C346   1.463       .  S
C176        O202   1.271       .  A
C176        O208   1.269       .  A
Ti177       O192   2.169       .  S
Ti177       O183   2.155       .  S
Ti177       O214   2.158       .  S
Ti177       O203   2.195       .  S
Ti177       O199   2.192       .  S
Ti178       O186   2.169       .  S
Ti178       O206   2.206   1_554  S
Ti178       O182   2.124       .  S
Ti178       O193   2.173   1_554  S
Ti179       O184   2.160       .  S
Ti179       O210   2.162       .  S
Ti179       O204   2.133       .  S
Ti179       O207   2.102       .  S
O180        C196   1.270       .  A
O180       Ti215   2.144       .  S
O181       Ti215   2.041       .  S
O184       Ti201   2.163       .  S
O185        C200   1.265       .  A
O187        C196   1.285       .  A
O187       Ti209   2.204       .  S
O188        C191   1.256   1_556  A
O190       Ti201   2.148   1_455  S
C191        C320   1.408       .  S
C191        O205   1.277       .  A
O192       Ti215   2.164   1_655  S
O193        C195   1.278       .  A
C195        C357   1.470       .  S
C195        O210   1.275       .  A
C196        C375   1.478       .  S
C197        C325   1.403       .  S
C197        O207   1.265       .  A
O198       Ti201   2.185   1_455  S
C200        C352   1.475       .  S
C200        O212   1.271       .  A
Ti201       O212   2.174   1_655  S
O202       Ti209   2.155       .  S
O204        C213   1.267       .  A
O205       Ti209   2.152       .  S
O206        C213   1.284       .  A
O208       Ti215   2.154       .  S
Ti209       O216   2.162       .  S
Ti209       O211   2.160       .  S
C213        C364   1.475       .  S
N217        C222   1.347       .  A
N217        C221   1.348       .  A
N217        H249   1.043       .  S
N218        C225   1.339       .  A
N218        C226   1.334   1_455  A
N219        C224   1.336       .  A
N219        C223   1.334       .  A
N219        H250   1.042       .  S
N220        C227   1.335       .  A
N220        C228   1.337   1_455  A
C221        C229   1.389       .  A
C221        C237   1.402       .  A
C222        C238   1.398       .  A
C222        C230   1.386       .  A
C223        C231   1.388       .  A
C223        C240   1.387       .  A
C224        C239   1.388       .  A
C224        C232   1.386       .  A
C225        C237   1.379       .  A
C225        C233   1.386       .  A
C226        C240   1.398       .  A
C226        C234   1.388   1_655  A
C227        C235   1.390       .  A
C227        C238   1.383       .  A
C228        C236   1.383   1_655  A
C228        C239   1.398       .  A
C229        C230   1.373       .  A
C229        H241   1.083       .  S
C230        H242   1.083       .  S
C231        C232   1.380       .  A
C231        H243   1.082       .  S
C232        H244   1.082       .  S
C233        C234   1.376       .  A
C233        H245   1.083       .  S
C234        H246   1.082       .  S
C235        C236   1.384       .  A
C235        H247   1.083       .  S
C236        H248   1.082   1_455  S
C237        C323   1.439       .  S
C238        C341   1.437       .  S
C239        C326   1.411       .  S
C240        C339   1.399       .  S
N251        C256   1.340       .  A
N251        C255   1.344       .  A
N251        H283   1.042   1_545  S
N252        C259   1.339       .  A
N252        C260   1.337       .  A
N253        C258   1.348       .  A
N253        C257   1.347       .  A
N253        H284   1.040       .  S
N254        C261   1.339       .  A
N254        C262   1.340       .  A
C255        C263   1.389       .  A
C255        C271   1.397       .  A
C256        C272   1.387       .  A
C256        C264   1.386       .  A
C257        C265   1.385       .  A
C257        C274   1.394       .  A
C258        C273   1.403       .  A
C258        C266   1.389       .  A
C259        C271   1.396   1_565  A
C259        C267   1.381       .  A
C260        C274   1.389       .  A
C260        C268   1.393       .  A
C261        C269   1.389       .  A
C261        C272   1.398   1_565  A
C262        C270   1.384       .  A
C262        C273   1.383       .  A
C263        C264   1.364       .  A
C263        H275   1.082       .  S
C264        H276   1.082       .  S
C265        C266   1.368       .  A
C265        H277   1.083       .  S
C266        H278   1.082       .  S
C267        C268   1.381       .  A
C267        H279   1.082       .  S
C268        H280   1.083       .  S
C269        C270   1.373       .  A
C269        H281   1.082       .  S
C270        H282   1.083       .  S
C271        C336   1.424       .  S
C272        C332   1.410       .  S
C273        C337   1.438   1_565  S
C274        C333   1.439   1_565  S
N285        C290   1.341   1_554  A
N285        C289   1.337       .  A
N285        H317   1.044       .  S
N286        C293   1.333       .  A
N286        C294   1.333       .  A
N287        C292   1.341   1_554  A
N287        C291   1.339       .  A
N287        H318   1.045       .  S
N288        C295   1.343       .  A
N288        C296   1.343       .  A
C289        C297   1.394       .  A
C289        C305   1.400       .  A
C290        C306   1.374       .  A
C290        C298   1.376       .  A
C291        C299   1.393   1_554  A
C291        C308   1.403       .  A
C292        C307   1.380       .  A
C292        C300   1.380       .  A
C293        C305   1.389       .  A
C293        C301   1.385       .  A
C294        C308   1.397       .  A
C294        C302   1.392       .  A
C295        C303   1.390       .  A
C295        C306   1.397       .  A
C296        C304   1.384       .  A
C296        C307   1.390       .  A
C297        C298   1.378   1_554  A
C297        H309   1.080   1_554  S
C298        H310   1.082       .  S
C299        C300   1.381       .  A
C299        H311   1.082       .  S
C300        H312   1.082       .  S
C301        C302   1.380       .  A
C301        H313   1.082       .  S
C302        H314   1.083       .  S
C303        C304   1.374       .  A
C303        H315   1.083       .  S
C304        H316   1.083       .  S
C305        C321   1.408       .  S
C306        C328   1.430   1_556  S
C307        C319   1.430       .  S
C308        C329   1.410       .  S
C319        C320   1.197   1_556  T
C321        C322   1.183       .  T
C323        C324   1.198   1_455  T
C325        C326   1.187       .  T
C327        C328   1.194       .  T
C329        C330   1.185       .  T
C331        C332   1.179       .  T
C333        C334   1.196       .  T
C335        C336   1.193       .  T
C337        C338   1.198       .  T
C339        C340   1.176       .  T
C341        C342   1.198   1_455  T
C343        C344   1.227       .  T
C345        C346   1.222       .  T
C347        C348   1.223       .  T
C349        C350   1.225       .  T
C351        C352   1.230       .  T
C353        C354   1.227       .  T
C355        C356   1.230       .  T
C357        C358   1.226       .  T
C359        C360   1.226       .  T
C361        C362   1.232       .  T
C363        C364   1.230       .  T
C365        C366   1.230       .  T
C367        C368   1.229       .  T
C369        C370   1.229       .  T
C371        C372   1.234       .  T
C373        C374   1.234       .  T
C375        C376   1.232       .  T
C377        C378   1.230       .  T
C379        C380   1.227       .  T
C381        C382   1.233       .  T
C383        C384   1.229       .  T
C385        C386   1.228       .  T
C387        C388   1.230       .  T
C389        C390   1.233       .  T
