geometry optimzed in LAMMPS
_audit_creation_date              2020-12-01 
_audit_creation_method            'lammps2cif' 
_symmetry_space_group_name_H-M    'P1' 
_symmetry_Int_Tables_number       1 
_symmetry_cell_setting            triclinic 
loop_ 
_symmetry_equiv_pos_as_xyz 
  x,y,z 
_cell_length_a                    50.03400582 
_cell_length_b                    50.063370123124805 
_cell_length_c                    30.459165694256978 
_cell_angle_alpha                 89.98943413566124 
_cell_angle_beta                  89.98536212610526 
_cell_angle_gamma                 120.01875039920249 
loop_ 
_atom_site_label 
_atom_site_type_symbol 
_atom_site_fract_x 
_atom_site_fract_y 
_atom_site_fract_z 
_atom_site_charge 
O1          O  0.81724376  0.63238634  0.73465256    -0.73100
O2          O  0.84098363  0.64274233  0.60643689    -0.74100
O3          O  0.87345435  0.65981239  0.68756414    -0.62700
O4          O  0.78400979  0.61467625  0.65308152    -0.71200
O5          O  0.78429506  0.65904913  0.65180906    -0.70700
O6          O  0.87310942  0.70396018  0.68618077    -0.62000
O7          O  0.84052522  0.68677331  0.60528001    -0.74500
O8          O  0.81737233  0.67662335  0.73282134    -0.73300
Cu9        Cu  0.82882010  0.63577244  0.67046967     1.04600
Cu10       Cu  0.82873620  0.68303863  0.66895894     1.04300
C11         C  0.81464437  0.65352952  0.75446365     0.93000
C12         C  0.84453435  0.66650007  0.58559957     0.92200
C13         C  0.88716696  0.68899335  0.69319138     0.84300
C14         C  0.77015569  0.62986589  0.64604075     0.90600
O15         O  0.20882653  0.87952181  0.84384195    -0.73100
O16         O  0.11946456  0.83097565  0.80949325    -0.74100
O17         O  0.15323032  0.84681904  0.89024521    -0.62700
O18         O  0.17531771  0.86402214  0.76228596    -0.71200
O19         O  0.17888104  0.82185276  0.75764876    -0.70700
O20         O  0.15624534  0.80422251  0.88561973    -0.62000
O21         O  0.12281691  0.78858602  0.80487052    -0.74500
O22         O  0.21217339  0.83718035  0.83922125    -0.73300
Cu23       Cu  0.16408627  0.85679063  0.82649514     1.04600
Cu24       Cu  0.16765102  0.81151041  0.82156021     1.04300
C25         C  0.22434106  0.86575848  0.84881071     0.93000
C26         C  0.10701555  0.80212271  0.80141564     0.92200
C27         C  0.15208224  0.82325958  0.90846647     0.84300
C28         C  0.17998676  0.84538739  0.73928312     0.90600
O29         O  0.54492898  0.04882258  0.01081577    -0.73100
O30         O  0.45494230  0.00861789  0.98144563    -0.74100
O31         O  0.49033092  0.02570559  0.06046499    -0.62700
O32         O  0.50963379  0.03168987  0.93135627    -0.71200
O33         O  0.50699089  0.98614384  0.93408085    -0.70700
O34         O  0.48732722  0.98012770  0.06288792    -0.62000
O35         O  0.45170020  0.96286296  0.98389314    -0.74500
O36         O  0.54200217  0.00315621  0.01308104    -0.73300
Cu37       Cu  0.50007872  0.03028877  0.99588633     1.04600
Cu38       Cu  0.49682569  0.98145345  0.99851484     1.04300
C39         C  0.55754757  0.03242751  0.01763891     0.93000
C40         C  0.43911711  0.97933734  0.97726378     0.92200
C41         C  0.48641806  0.00224189  0.08244818     0.84300
C42         C  0.51117864  0.00975083  0.91228419     0.90600
O43         O  0.15406624  0.31329400  0.39419284    -0.73100
O44         O  0.17917364  0.32063259  0.26704478    -0.74100
O45         O  0.21097030  0.34167365  0.34976068    -0.62700
O46         O  0.12198870  0.29224477  0.31257355    -0.71200
O47         O  0.12047920  0.33562354  0.30682238    -0.70700
O48         O  0.20879927  0.38468197  0.34425074    -0.62000
O49         O  0.17714015  0.36363513  0.26152160    -0.74500
O50         O  0.15222803  0.35639192  0.38874280    -0.73300
Cu51       Cu  0.16665270  0.31547269  0.33093994     1.04600
Cu52       Cu  0.16461300  0.36154729  0.32499177     1.04300
C53         C  0.15014429  0.33419923  0.41208309     0.93000
C54         C  0.18125003  0.34281620  0.24368718     0.92200
C55         C  0.22342537  0.37083448  0.35505372     0.84300
C56         C  0.10732759  0.30632849  0.30321656     0.90600
O57         O  0.81992888  0.13682447  0.22538915    -0.73100
O58         O  0.84373644  0.15040187  0.09786012    -0.74100
O59         O  0.87638135  0.16529947  0.17939004    -0.62700
O60         O  0.78732504  0.12195957  0.14406415    -0.71200
O61         O  0.78810933  0.16667165  0.14517256    -0.70700
O62         O  0.87666888  0.20975145  0.18205600    -0.62000
O63         O  0.84454603  0.19503216  0.09997934    -0.74500
O64         O  0.82054502  0.18144845  0.22717977    -0.73300
Cu65       Cu  0.83181562  0.14206233  0.16160559     1.04600
Cu66       Cu  0.83244912  0.18974904  0.16362337     1.04300
C67         C  0.81754813  0.15751065  0.24673668     0.93000
C68         C  0.84715124  0.17454052  0.07840123     0.92200
C69         C  0.89029769  0.19420022  0.18756191     0.84300
C70         C  0.77395091  0.13767820  0.13772598     0.90600
O71         O  0.53612787  0.54970357  0.53988528    -0.73100
O72         O  0.44596700  0.51012999  0.51232657    -0.74100
O73         O  0.48179649  0.52344482  0.59089497    -0.62700
O74         O  0.50053278  0.53604915  0.46170041    -0.71200
O75         O  0.49764815  0.49057137  0.45792676    -0.70700
O76         O  0.47888247  0.47791015  0.58673379    -0.62000
O77         O  0.44264798  0.46437714  0.50865524    -0.74500
O78         O  0.53350324  0.50428343  0.53603929    -0.73300
Cu79       Cu  0.49114930  0.53136173  0.52635933     1.04600
Cu80       Cu  0.48800292  0.48267045  0.52221352     1.04300
C81         C  0.54907793  0.53335121  0.54310096     0.93000
C82         C  0.43014103  0.48117425  0.50502688     0.92200
C83         C  0.47834120  0.49903849  0.60957565     0.84300
C84         C  0.50193379  0.51525318  0.43915741     0.90600
O85         O  0.19948501  0.35644100  0.88921296    -0.73100
O86         O  0.18112347  0.35989287  0.76091649    -0.74100
O87         O  0.16576506  0.37839827  0.84158738    -0.62700
O88         O  0.21469291  0.33788774  0.80769348    -0.71200
O89         O  0.17244140  0.29203335  0.81404255    -0.70700
O90         O  0.12350602  0.33253665  0.84638640    -0.62000
O91         O  0.13897163  0.31396691  0.76616438    -0.74500
O92         O  0.15699282  0.31095517  0.89417694    -0.73300
Cu93       Cu  0.19176374  0.35975935  0.82471148     1.04600
Cu94       Cu  0.14658034  0.31080542  0.83042384     1.04300
C95         C  0.18043802  0.33343122  0.91249195     0.93000
C96         C  0.15755689  0.33722858  0.74300594     0.92200
C97         C  0.13693129  0.36186746  0.84982126     0.84300
C98         C  0.20099329  0.30853209  0.80419639     0.90600
O99         O  0.28744158  0.16649971  0.67616459    -0.73100
O100        O  0.32924371  0.11700126  0.65087522    -0.74100
O101        O  0.30892037  0.13448365  0.72831965    -0.62700
O102        O  0.30742431  0.14856966  0.59897693    -0.71200
O103        O  0.35277968  0.19160800  0.60383366    -0.70700
O104        O  0.35467470  0.17683751  0.73293424    -0.62000
O105        O  0.37457385  0.15991208  0.65549504    -0.74500
O106        O  0.33342906  0.20882384  0.68187888    -0.73300
Cu107      Cu  0.30661356  0.14014114  0.66337394     1.04600
Cu108      Cu  0.35540423  0.18573450  0.66864304     1.04300
C109        C  0.30409263  0.19525793  0.68471755     0.93000
C110        C  0.35871487  0.13096252  0.64818559     0.92200
C111        C  0.33176341  0.15383811  0.75140511     0.84300
C112        C  0.33024296  0.17173784  0.58075347     0.90600
O113        O  0.02181047  0.50983189  0.06399656    -0.73100
O114        O  0.01754389  0.52637707  0.93548243    -0.74100
O115        O  0.99884532  0.54180107  0.01502771    -0.62700
O116        O  0.04088028  0.49404829  0.98337257    -0.71200
O117        O  0.99528167  0.45141214  0.97870957    -0.70700
O118        O  0.95350739  0.49856776  0.01193389    -0.62000
O119        O  0.97202446  0.48370091  0.93179766    -0.74500
O120        O  0.97670105  0.46667543  0.05961098    -0.73300
Cu121      Cu  0.02142525  0.51946869  0.99970234     1.04600
Cu122      Cu  0.97287731  0.47359956  0.99536190     1.04300
C123        C  0.99947182  0.48630210  0.08258023     0.93000
C124        C  0.99402358  0.50735593  0.91313165     0.92200
C125        C  0.96952554  0.52749707  0.01929037     0.84300
C126        C  0.02455688  0.46536111  0.97410347     0.90600
O127        O  0.69586187  0.84786736  0.40306070    -0.73100
O128        O  0.69470438  0.86706774  0.27357022    -0.74100
O129        O  0.67521130  0.88218335  0.35403438    -0.62700
O130        O  0.71603457  0.83325894  0.32222842    -0.71200
O131        O  0.67024739  0.79134054  0.31467111    -0.70700
O132        O  0.62963850  0.83987462  0.34758820    -0.62000
O133        O  0.64891171  0.82506223  0.26771184    -0.74500
O134        O  0.65051705  0.80561756  0.39520556    -0.73300
Cu135      Cu  0.69709556  0.85906492  0.33850712     1.04600
Cu136      Cu  0.64831626  0.81408398  0.33111156     1.04300
C137        C  0.67279216  0.82399694  0.41995092     0.93000
C138        C  0.67168750  0.84846001  0.24988109     0.92200
C139        C  0.64582704  0.86846466  0.35713342     0.84300
C140        C  0.69960250  0.80484551  0.31161059     0.90600
O141        O  0.79196019  0.66569587  0.18969036    -0.73100
O142        O  0.83608999  0.61993047  0.15941451    -0.74100
O143        O  0.82299210  0.64179543  0.23863883    -0.62700
O144        O  0.80472840  0.64298798  0.11110828    -0.71200
O145        O  0.84904619  0.68641085  0.10266843    -0.70700
O146        O  0.86639158  0.68641492  0.23272732    -0.62000
O147        O  0.88031186  0.66418529  0.15411943    -0.74500
O148        O  0.83560711  0.70982126  0.18072108    -0.73300
Cu149      Cu  0.81247388  0.64113113  0.17510620     1.04600
Cu150      Cu  0.85935632  0.68831858  0.16738191     1.04300
C151        C  0.80695803  0.69518710  0.19046013     0.93000
C152        C  0.86483570  0.63490896  0.15014702     0.92200
C153        C  0.84690050  0.66394701  0.25647640     0.84300
C154        C  0.82457974  0.66394236  0.08603977     0.90600
O155        O  0.50953069  0.96159159  0.48141883    -0.73100
O156        O  0.45861928  0.99951051  0.51636490    -0.74100
O157        O  0.47679511  0.98464209  0.43482446    -0.62700
O158        O  0.49101240  0.97633300  0.56264442    -0.71200
O159        O  0.53250323  0.02284503  0.56178270    -0.70700
O160        O  0.51914758  0.03049594  0.43315651    -0.62000
O161        O  0.50038212  0.04595312  0.51374389    -0.74500
O162        O  0.55173308  0.00774579  0.48174804    -0.73300
Cu163      Cu  0.48255986  0.97891631  0.49878343     1.04600
Cu164      Cu  0.52739441  0.02836200  0.49749550     1.04300
C165        C  0.53859489  0.97867713  0.47547245     0.93000
C166        C  0.47168471  0.02864855  0.52216372     0.92200
C167        C  0.49621049  0.00843804  0.41328057     0.84300
C168        C  0.51328800  0.99872320  0.58295626     0.90600
O169        O  0.31240939  0.15367949  0.10197458    -0.73100
O170        O  0.31863732  0.17449640  0.23021376    -0.74100
O171        O  0.33567896  0.20881167  0.15057434    -0.62700
O172        O  0.29469431  0.11896769  0.18145331    -0.71200
O173        O  0.34026338  0.12189593  0.18529044    -0.70700
O174        O  0.38140901  0.21174041  0.15174669    -0.62000
O175        O  0.36452317  0.17789657  0.23245547    -0.74500
O176        O  0.35773853  0.15608988  0.10507621    -0.73300
Cu177      Cu  0.31377413  0.16386867  0.16601839     1.04600
Cu178      Cu  0.36257365  0.16701079  0.16882529     1.04300
C179        C  0.33446885  0.15231003  0.08288572     0.93000
C180        C  0.34249579  0.17912872  0.25177135     0.92200
C181        C  0.36485451  0.22418517  0.14485774     0.84300
C182        C  0.31087388  0.10618899  0.18887042     0.90600
O183        O  0.49288616  0.45836820  0.03438375    -0.73100
O184        O  0.53982745  0.54888297  0.00757363    -0.74100
O185        O  0.52391949  0.51251325  0.08526348    -0.62700
O186        O  0.50885171  0.49453710  0.95665224    -0.71200
O187        O  0.46485400  0.49491321  0.96141694    -0.70700
O188        O  0.48085251  0.51453515  0.08995769    -0.62000
O189        O  0.49589714  0.54970676  0.01065810    -0.74500
O190        O  0.44929583  0.45951279  0.03988492    -0.73300
Cu191      Cu  0.51785979  0.50351740  0.02082905     1.04600
Cu192      Cu  0.47123259  0.50477171  0.02577207     1.04300
C193        C  0.46385104  0.44463610  0.04180272     0.93000
C194        C  0.52492311  0.56329129  0.00344708     0.92200
C195        C  0.50460721  0.51607406  0.10828343     0.84300
C196        C  0.48466600  0.49203619  0.93850754     0.90600
O197        O  0.15346086  0.83820096  0.38908110    -0.73100
O198        O  0.13785796  0.81630325  0.26067850    -0.74100
O199        O  0.12371474  0.78236733  0.34129180    -0.62700
O200        O  0.16760265  0.87222951  0.30806476    -0.71200
O201        O  0.21156692  0.87176823  0.30360280    -0.70700
O202        O  0.16813716  0.78272754  0.33861314    -0.62000
O203        O  0.18189451  0.81586235  0.25755177    -0.74500
O204        O  0.19796634  0.83884653  0.38512193    -0.73300
Cu205      Cu  0.14408649  0.82724354  0.32498990     1.04600
Cu206      Cu  0.19135739  0.82725211  0.32110412     1.04300
C207        C  0.17783637  0.84141775  0.40770099     0.93000
C208        C  0.15824864  0.81392638  0.23844758     0.92200
C209        C  0.13918532  0.76857921  0.34639240     0.84300
C210        C  0.19644979  0.88596802  0.29919835     0.90600
O211        O  0.03934869  0.54157306  0.48658485    -0.73100
O212        O  0.99367172  0.45268783  0.51866998    -0.74100
O213        O  0.01387585  0.48660706  0.43873878    -0.62700
O214        O  0.01939617  0.50823774  0.56658183    -0.71200
O215        O  0.97487262  0.50743626  0.56201885    -0.70700
O216        O  0.97009602  0.48716018  0.43291879    -0.62000
O217        O  0.94922173  0.45185690  0.51272947    -0.74500
O218        O  0.99531742  0.54202121  0.48239927    -0.73300
Cu219      Cu  0.01799444  0.49719637  0.50288680     1.04600
Cu220      Cu  0.97074440  0.49702226  0.49743012     1.04300
C221        C  0.02463953  0.55570737  0.47822543     0.93000
C222        C  0.96426974  0.43809839  0.52157193     0.92200
C223        C  0.99201964  0.48488783  0.41499534     0.84300
C224        C  0.99799588  0.51120533  0.58476842     0.90600
O225        O  0.80793324  0.15368793  0.59879921    -0.73100
O226        O  0.82013465  0.17139637  0.72748188    -0.74100
O227        O  0.83633380  0.20763849  0.64949592    -0.62700
O228        O  0.79179140  0.11742881  0.67680150    -0.71200
O229        O  0.83570798  0.11692183  0.67361618    -0.70700
O230        O  0.88046215  0.20727820  0.64566314    -0.62000
O231        O  0.86418853  0.17110393  0.72490689    -0.74500
O232        O  0.85190475  0.15334573  0.59508290    -0.73300
Cu233      Cu  0.81257626  0.16254984  0.66329397     1.04600
Cu234      Cu  0.85965241  0.16218147  0.65979638     1.04300
C235        C  0.82828731  0.15158442  0.57610061     0.93000
C236        C  0.84344839  0.17299470  0.74704949     0.92200
C237        C  0.86522412  0.22134517  0.64134813     0.84300
C238        C  0.80660190  0.10289692  0.68048570     0.90600
O239        O  0.65118081  0.84640010  0.89757007    -0.73100
O240        O  0.64059858  0.81714783  0.77113582    -0.74100
O241        O  0.62184204  0.78815447  0.85703110    -0.62700
O242        O  0.66925691  0.87525466  0.81331072    -0.71200
O243        O  0.71269786  0.87353562  0.81668982    -0.70700
O244        O  0.66521044  0.78634521  0.86034155    -0.62000
O245        O  0.68393822  0.81569238  0.77587373    -0.74500
O246        O  0.69434814  0.84450251  0.90113997    -0.73300
Cu247      Cu  0.64413618  0.83169498  0.83449326     1.04600
Cu248      Cu  0.69047122  0.82990794  0.83864464     1.04300
C249        C  0.67419420  0.84928842  0.91974131     0.93000
C250        C  0.66148289  0.81322548  0.75283995     0.92200
C251        C  0.63626449  0.77404913  0.86755210     0.84300
C252        C  0.69833461  0.88788344  0.80726359     0.90600
C253        C  0.79033832  0.07008308  0.69484921    -0.20100
C254        C  0.75776446  0.05257252  0.69849466     0.36100
C255        C  0.74388259  0.02278855  0.71655449    -0.26000
C256        C  0.76161827  0.01003981  0.73139508     0.02600
C257        C  0.79400163  0.02706712  0.72681211     0.27400
C258        C  0.80795776  0.05672037  0.70822915    -0.25200
N259        N  0.73879112  0.06500477  0.68426036    -0.82600
H260        H  0.71896303  0.00937248  0.71921158     0.13200
C261        C  0.74582638  0.97890044  0.75186099     0.02600
N262        N  0.81264847  0.01452293  0.74210292    -0.81100
H263        H  0.83288577  0.06985091  0.70569653     0.18000
C264        C  0.75119134  0.95580943  0.73535697    -0.26000
C265        C  0.73635735  0.92602641  0.75354906     0.36100
C266        C  0.71526389  0.91910367  0.78834311    -0.20000
C267        C  0.70954354  0.94197073  0.80447888    -0.25200
C268        C  0.72512713  0.97201709  0.78727429     0.27400
H269        H  0.76672772  0.96095896  0.70780704     0.13200
N270        N  0.74208433  0.90262838  0.73621545    -0.82500
H271        H  0.69337233  0.93651181  0.83129379     0.18000
N272        N  0.72037994  0.99568373  0.80600808    -0.81100
H273        H  0.75840451  0.91158104  0.71093524     0.33700
H274        H  0.72155424  0.88549047  0.72215657     0.38200
H275        H  0.70445143  0.98681841  0.83176233     0.33600
H276        H  0.74133485  0.01230400  0.81972341     0.30300
H277        H  0.83603701  0.02990047  0.73615679     0.33600
H278        H  0.81001730  0.01203254  0.77616834     0.30300
H279        H  0.74093734  0.06747829  0.65014294     0.38200
H280        H  0.71549523  0.04955741  0.69070072     0.33700
C281        C  0.94824705  0.40542715  0.53659985    -0.20100
C282        C  0.91577109  0.38749968  0.54156976     0.36100
C283        C  0.90256438  0.35702505  0.55708088    -0.26000
C284        C  0.92102450  0.34458359  0.56993047     0.02600
C285        C  0.95333579  0.36249902  0.56549307     0.27400
C286        C  0.96645835  0.39232602  0.54808609    -0.25200
N287        N  0.89625682  0.40016979  0.53161380    -0.82600
H288        H  0.87770552  0.34306643  0.56010522     0.13200
C289        C  0.90640622  0.31299099  0.58871665     0.02600
N290        N  0.97280436  0.35061759  0.57969516    -0.81100
H291        H  0.99132375  0.40572420  0.54480053     0.18000
C292        C  0.91370439  0.29156722  0.57091461    -0.26000
C293        C  0.90129407  0.26182929  0.58858173     0.36100
C294        C  0.88059914  0.25313043  0.62429175    -0.20000
C295        C  0.87273943  0.27424953  0.64154977    -0.25200
C296        C  0.88587558  0.30432362  0.62466676     0.27400
H297        H  0.92901981  0.29804610  0.54284498     0.13200
N298        N  0.90897809  0.24020330  0.56962211    -0.82500
H299        H  0.85665368  0.26736873  0.66873972     0.18000
N300        N  0.87878527  0.32618692  0.64422245    -0.81100
H301        H  0.92483183  0.25043171  0.54400379     0.33700
H302        H  0.88888367  0.22230271  0.55566360     0.38200
H303        H  0.86323745  0.31609534  0.67021097     0.33600
H304        H  0.89918174  0.34393131  0.65772671     0.30300
H305        H  0.99604818  0.36663923  0.57398138     0.33600
H306        H  0.97022741  0.34747040  0.61369789     0.30300
H307        H  0.90046631  0.41688701  0.55540012     0.38200
H308        H  0.87298516  0.38336802  0.53492879     0.33700
C309        C  0.12344791  0.73635229  0.36264789    -0.20100
C310        C  0.13886315  0.72512891  0.38933131     0.36100
C311        C  0.12208571  0.69547873  0.40756169    -0.26000
C312        C  0.09054089  0.67647267  0.39888371     0.02600
C313        C  0.07531841  0.68721314  0.37126266     0.27400
C314        C  0.09183829  0.71718606  0.35390558    -0.25200
N315        N  0.17109771  0.74420341  0.39949311    -0.82600
H316        H  0.13361401  0.68719816  0.42911005     0.13200
C317        C  0.07377450  0.64555126  0.41956570     0.02600
N318        N  0.04318332  0.66762944  0.36098081    -0.81100
H319        H  0.07997623  0.72561446  0.33332348     0.18000
C320        C  0.04766079  0.63769993  0.44553716    -0.26000
C321        C  0.03135019  0.60868962  0.46592928     0.36100
C322        C  0.04176903  0.58738364  0.46065803    -0.20000
C323        C  0.06822152  0.59554294  0.43534084    -0.25200
C324        C  0.08405746  0.62417970  0.41422458     0.27400
H325        H  0.04010386  0.65436882  0.45005887     0.13200
N326        N  0.00448047  0.60092997  0.49202901    -0.82500
H327        H  0.07595157  0.57902194  0.43058551     0.18000
N328        N  0.11014619  0.63140445  0.38662230    -0.81100
H329        H  0.99979100  0.61907328  0.49210543     0.33700
H330        H  0.00953932  0.59817870  0.52445336     0.38200
H331        H  0.11475863  0.61320625  0.38632395     0.33600
H332        H  0.10419050  0.63368087  0.35450282     0.30300
H333        H  0.03541767  0.67905514  0.34040977     0.33600
H334        H  0.04105387  0.64877237  0.34326659     0.30300
H335        H  0.18349625  0.74621340  0.37086541     0.38200
H336        H  0.17804150  0.73337909  0.42249513     0.33700
C337        C  0.54095444  0.59537593  0.98760079    -0.20100
C338        C  0.52903740  0.60383791  0.95159012     0.36100
C339        C  0.54539501  0.63409501  0.93544193    -0.26000
C340        C  0.57340464  0.65587133  0.95438035     0.02600
C341        C  0.58509581  0.64774528  0.99097751     0.27400
C342        C  0.56884848  0.61730213  0.00699761    -0.25200
N343        N  0.50091308  0.58136821  0.93064554    -0.82600
H344        H  0.53669008  0.64060558  0.90726125     0.13200
C345        C  0.59068989  0.68659621  0.93374011     0.02600
N346        N  0.61302136  0.67048564  0.01200433    -0.81100
H347        H  0.57782059  0.61066646  0.03472787     0.18000
C348        C  0.58343251  0.70937609  0.94480571    -0.26000
C349        C  0.59788952  0.73811679  0.92337780     0.36100
C350        C  0.61975857  0.74384731  0.88993488    -0.20000
C351        C  0.62718185  0.72106182  0.87937949    -0.25200
C352        C  0.61258679  0.69231292  0.90064204     0.27400
H353        H  0.56637861  0.70461872  0.97010545     0.13200
N354        N  0.59089809  0.76163651  0.93600898    -0.82500
H355        H  0.64406251  0.72555557  0.85393502     0.18000
N356        N  0.61908867  0.66850713  0.88777505    -0.81100
H357        H  0.57422704  0.75359608  0.96084128     0.33700
H358        H  0.61093647  0.77993297  0.94947887     0.38200
H359        H  0.63511884  0.67614986  0.86211479     0.33600
H360        H  0.62951741  0.66408972  0.91432971     0.30300
H361        H  0.61810542  0.66085660  0.03896518     0.33600
H362        H  0.63118569  0.67721991  0.98979800     0.30300
H363        H  0.50490788  0.56459564  0.91668291     0.38200
H364        H  0.49527592  0.59138332  0.90477604     0.33700
C365        C  0.29509870  0.07307588  0.20195680    -0.20100
C366        C  0.30982185  0.06061460  0.22770919     0.36100
C367        C  0.29287630  0.02971525  0.24178532    -0.26000
C368        C  0.26179599  0.01077629  0.23010444     0.02600
C369        C  0.24735403  0.02282354  0.20338519     0.27400
C370        C  0.26399872  0.05386184  0.19004438    -0.25200
N371        N  0.34148606  0.07949151  0.24091207    -0.82600
H372        H  0.30387861  0.02035808  0.26239032     0.13200
C373        C  0.24457968  0.97850584  0.24670296     0.02600
N374        N  0.21586645  0.00341050  0.18977238    -0.81100
H375        H  0.25260412  0.06305726  0.16996237     0.18000
C376        C  0.21825224  0.96907303  0.27290291    -0.26000
C377        C  0.20196566  0.93903652  0.29044126     0.36100
C378        C  0.21254241  0.91808688  0.28202996    -0.20000
C379        C  0.23871086  0.92756683  0.25531272    -0.25200
C380        C  0.25454606  0.95734099  0.23713152     0.27400
H381        H  0.21063886  0.98540627  0.28015438     0.13200
N382        N  0.17505102  0.92998981  0.31709202    -0.82500
H383        H  0.24653756  0.91144308  0.24778244     0.18000
N384        N  0.28047388  0.96607765  0.20847905    -0.81100
H385        H  0.17012727  0.94792775  0.31937221     0.33700
H386        H  0.18019381  0.92606748  0.34888385     0.38200
H387        H  0.28480248  0.94782710  0.20461455     0.33600
H388        H  0.27445223  0.97037001  0.17747916     0.30300
H389        H  0.20860020  0.01576061  0.17024713     0.33600
H390        H  0.21508695  0.98598583  0.16993991     0.30300
H391        H  0.35514328  0.08375237  0.21292555     0.38200
H392        H  0.34788637  0.06746470  0.26256801     0.33700
C393        C  0.37916272  0.25634939  0.12912537    -0.20100
C394        C  0.40006748  0.26699754  0.09342622     0.36100
C395        C  0.41192332  0.29719641  0.07824990    -0.26000
C396        C  0.40357376  0.31725368  0.09800977     0.02600
C397        C  0.38255482  0.30676726  0.13334316     0.27400
C398        C  0.37023419  0.27622430  0.14822078    -0.25200
N399        N  0.40887533  0.24741884  0.07100841    -0.82600
H400        H  0.42798948  0.30520939  0.05095327     0.13200
C401        C  0.41870447  0.34973930  0.08309256     0.02600
N402        N  0.37420623  0.32729057  0.15428377    -0.81100
H403        H  0.35399022  0.26801454  0.17529033     0.18000
C404        C  0.40141677  0.36105980  0.06208531    -0.26000
C405        C  0.41560100  0.39180328  0.04714700     0.36100
C406        C  0.44758115  0.41159625  0.05431463    -0.20000
C407        C  0.46468538  0.39992660  0.07500127    -0.25200
C408        C  0.45059382  0.36929680  0.08951731     0.27400
H409        H  0.37693728  0.34572464  0.05682637     0.13200
N410        N  0.39781953  0.40272418  0.02415651    -0.82500
H411        H  0.48914457  0.41497212  0.08076876     0.18000
N412        N  0.46847961  0.35796631  0.11121942    -0.81100
H413        H  0.37472717  0.38527731  0.02176652     0.33700
H414        H  0.40628558  0.40797361  0.99203675     0.38200
H415        H  0.49167717  0.37517960  0.11307534     0.33600
H416        H  0.46046796  0.35252138  0.14353184     0.30300
H417        H  0.35847995  0.31597504  0.17970265     0.33600
H418        H  0.39411039  0.34505667  0.16884765     0.30300
H419        H  0.38894040  0.22778720  0.06005161     0.38200
H420        H  0.42043114  0.24071094  0.09306650     0.33700
C421        C  0.67132977  0.81837507  0.46862810    -0.20100
C422        C  0.64560586  0.79300689  0.48914784     0.36100
C423        C  0.64455463  0.79022986  0.53527598    -0.26000
C424        C  0.66814720  0.81225477  0.56185414     0.02600
C425        C  0.69408220  0.83711241  0.54173921     0.27400
C426        C  0.69549334  0.83978378  0.49555657    -0.25200
N427        N  0.62029021  0.77029556  0.46350219    -0.82600
H428        H  0.62476079  0.77105533  0.55080760     0.13200
C429        C  0.66472951  0.80970726  0.61070658     0.02600
N430        N  0.71858485  0.85997275  0.56835882    -0.81100
H431        H  0.71532490  0.85925838  0.48064910     0.18000
C432        C  0.68603903  0.80604921  0.63611966    -0.26000
C433        C  0.68434113  0.80498769  0.68239050     0.36100
C434        C  0.66101316  0.80829598  0.70412103    -0.20000
C435        C  0.63890899  0.81058507  0.67826195    -0.25200
C436        C  0.64059038  0.81144022  0.63201644     0.27400
H437        H  0.70423526  0.80417166  0.61966497     0.13200
N438        N  0.70661152  0.80108029  0.70714551    -0.82500
H439        H  0.62086533  0.81300451  0.69413993     0.18000
N440        N  0.61839284  0.81504751  0.60658707    -0.81100
H441        H  0.72260341  0.79991865  0.68628352     0.33700
H442        H  0.69474490  0.77973366  0.72301703     0.38200
H443        H  0.60204027  0.81587153  0.62704933     0.33600
H444        H  0.63014507  0.83639731  0.59069520     0.30300
H445        H  0.73604824  0.87672203  0.54864779     0.33600
H446        H  0.70952304  0.87128901  0.58662528     0.30300
H447        H  0.60825548  0.78076265  0.45125938     0.38200
H448        H  0.60463569  0.75210028  0.48336094     0.33700
C449        C  0.67705322  0.85644826  0.96779096    -0.20100
C450        C  0.65982084  0.86802803  0.98946007     0.36100
C451        C  0.66199755  0.87177068  0.03549744    -0.26000
C452        C  0.68042077  0.86366524  0.06041037     0.02600
C453        C  0.69807664  0.85282844  0.03901511     0.27400
C454        C  0.69650900  0.84969317  0.99309083    -0.25200
N455        N  0.63986297  0.87556030  0.96512230    -0.82600
H456        H  0.64811000  0.87963998  0.05232218     0.13200
C457        C  0.67726704  0.86169812  0.10893011     0.02600
N458        N  0.71627521  0.84348396  0.06431769    -0.81100
H459        H  0.70966838  0.84061097  0.97723010     0.18000
C460        C  0.65430188  0.83401628  0.12710151    -0.26000
C461        C  0.65114798  0.82948972  0.17275116     0.36100
C462        C  0.67190716  0.85330030  0.20132986    -0.20000
C463        C  0.69454075  0.88143488  0.18276736    -0.25200
C464        C  0.69737275  0.88588792  0.13685900     0.27400
H465        H  0.63892224  0.81558308  0.10528413     0.13200
N466        N  0.62749148  0.80036131  0.18975140    -0.82500
H467        H  0.71039977  0.89991194  0.20409247     0.18000
N468        N  0.72046163  0.91480247  0.11857461    -0.81100
H469        H  0.61601427  0.78476034  0.16427664     0.33700
H470        H  0.61096864  0.80421120  0.20490878     0.38200
H471        H  0.73310593  0.93034127  0.14357772     0.33600
H472        H  0.73606240  0.91084072  0.10095031     0.30300
H473        H  0.72714672  0.83506341  0.04380031     0.33600
H474        H  0.73383064  0.86309776  0.07964780     0.30300
H475        H  0.62074548  0.85479033  0.95520034     0.38200
H476        H  0.63115787  0.88624722  0.98548071     0.33700
C477        C  0.71480506  0.78807349  0.29403423    -0.20100
C478        C  0.69885159  0.76166080  0.26697572     0.36100
C479        C  0.71498333  0.74822537  0.24835720    -0.26000
C480        C  0.74637072  0.75980958  0.25702861     0.02600
C481        C  0.76239972  0.78609612  0.28386577     0.27400
C482        C  0.74652601  0.80011534  0.30170428    -0.25200
N483        N  0.66656916  0.74887713  0.25748361    -0.82600
H484        H  0.70289421  0.72824128  0.22725965     0.13200
C485        C  0.76161056  0.74323589  0.23905366     0.02600
N486        N  0.79459909  0.79823560  0.29326417    -0.81100
H487        H  0.75898716  0.82042421  0.32207899     0.18000
C488        C  0.78763845  0.75883539  0.21200991    -0.26000
C489        C  0.80283215  0.74381233  0.19511762     0.36100
C490        C  0.79126314  0.71221648  0.20491987    -0.20000
C491        C  0.76462730  0.69654614  0.23098908    -0.25200
C492        C  0.74996831  0.71177184  0.24859325     0.27400
H493        H  0.79623688  0.78291632  0.20430925     0.13200
N494        N  0.82951321  0.76047762  0.16755769    -0.82500
H495        H  0.75569489  0.67245628  0.23895989     0.18000
N496        N  0.72359106  0.69555154  0.27685062    -0.81100
H497        H  0.83282525  0.78230019  0.15996352     0.33700
H498        H  0.84880806  0.76444350  0.18590860     0.38200
H499        H  0.71778990  0.67249395  0.28040598     0.33600
H500        H  0.72983291  0.70556452  0.30800714     0.30300
H501        H  0.80299820  0.81777639  0.31325410     0.33600
H502        H  0.79662010  0.78157090  0.31132300     0.30300
H503        H  0.65439672  0.73841169  0.28624228     0.38200
H504        H  0.65922047  0.73122570  0.23422066     0.33700
C505        C  0.55649974  0.96467693  0.45857272    -0.20100
C506        C  0.58704665  0.97438298  0.47212284     0.36100
C507        C  0.60256742  0.95991865  0.45426272    -0.26000
C508        C  0.58839246  0.93652454  0.42262631     0.02600
C509        C  0.55817467  0.92746155  0.40845774     0.27400
C510        C  0.54245184  0.94126936  0.42705534    -0.25200
N511        N  0.60166076  0.99778001  0.50522216    -0.82600
H512        H  0.62558250  0.96651212  0.46559793     0.13200
C513        C  0.60421098  0.91998349  0.40651628     0.02600
N514        N  0.54356803  0.90422291  0.37511050    -0.81100
H515        H  0.51921016  0.93413085  0.41615328     0.18000
C516        C  0.58880390  0.88780654  0.41048186    -0.26000
C517        C  0.60134563  0.87053498  0.39387023     0.36100
C518        C  0.63068797  0.88565472  0.37321436    -0.20000
C519        C  0.64665586  0.91809754  0.37046556    -0.25200
C520        C  0.63366842  0.93543170  0.38674393     0.27400
H521        H  0.56652949  0.87585107  0.42665718     0.13200
N522        N  0.58387647  0.83776487  0.39974752    -0.82500
H523        H  0.66924905  0.92999482  0.35522566     0.18000
N524        N  0.65015581  0.96849750  0.38304846    -0.81100
H525        H  0.57785858  0.82712626  0.36897304     0.33700
H526        H  0.59730345  0.83060587  0.41684011     0.38200
H527        H  0.67159594  0.97624092  0.36807667     0.33600
H528        H  0.63749352  0.97466129  0.36225212     0.30300
H529        H  0.52127245  0.89998214  0.36869138     0.33600
H530        H  0.55620887  0.91296876  0.34609925     0.30300
H531        H  0.60634047  0.01875041  0.49136885     0.38200
H532        H  0.62311926  0.00042098  0.51378285     0.33700
C533        C  0.99982652  0.51808548  0.63270648    -0.20100
C534        C  0.97965972  0.52633562  0.65363271     0.36100
C535        C  0.98018989  0.52902356  0.69969728    -0.26000
C536        C  0.00082344  0.52436875  0.72508154     0.02600
C537        C  0.02211735  0.51795125  0.70435949     0.27400
C538        C  0.02143977  0.51489903  0.65846978    -0.25200
N539        N  0.95843049  0.53152421  0.62833419    -0.82600
H540        H  0.96388193  0.53392957  0.71604787     0.13200
C541        C  0.99708835  0.52172242  0.77331495     0.02600
N542        N  0.04329687  0.51302886  0.73028612    -0.81100
H543        H  0.03722467  0.50890098  0.64299992     0.18000
C544        C  0.97686564  0.49266150  0.79091309    -0.26000
C545        C  0.97416795  0.48766648  0.83642681     0.36100
C546        C  0.99285439  0.51233470  0.86513464    -0.20000
C547        C  0.01226855  0.54184962  0.84724194    -0.25200
C548        C  0.01435444  0.54683760  0.80154035     0.27400
H549        H  0.96344669  0.47359696  0.76879023     0.13200
N550        N  0.95336502  0.45733596  0.85318316    -0.82500
H551        H  0.02617370  0.56102140  0.86892758     0.18000
N552        N  0.03376875  0.57717534  0.78375536    -0.81100
H553        H  0.94327766  0.44151522  0.82752981     0.33700
H554        H  0.93527517  0.45834221  0.86879610     0.38200
H555        H  0.04450559  0.59319962  0.80900650     0.33600
H556        H  0.05136722  0.57682172  0.76575071     0.30300
H557        H  0.05693384  0.50772102  0.71015359     0.33600
H558        H  0.05835389  0.53381130  0.74587220     0.30300
H559        H  0.97149482  0.55108868  0.60898255     0.38200
H560        H  0.94489762  0.53673034  0.64886561     0.33700
C561        C  0.99921797  0.48304457  0.13132962    -0.20100
C562        C  0.97911437  0.45502335  0.15317618     0.36100
C563        C  0.97768673  0.45435394  0.19943463    -0.26000
C564        C  0.99601362  0.48091561  0.22438076     0.02600
C565        C  0.01635498  0.50871051  0.20278587     0.27400
C566        C  0.01788538  0.50943422  0.15668328    -0.25200
N567        N  0.96024554  0.42735449  0.12852314    -0.82600
H568        H  0.96229930  0.43298274  0.21622048     0.13200
C569        C  0.99388834  0.47956483  0.27316257     0.02600
N570        N  0.03494612  0.53628166  0.22782890    -0.81100
H571        H  0.03308900  0.53110663  0.14047619     0.18000
C572        C  0.02006268  0.48591744  0.29775242    -0.26000
C573        C  0.02003102  0.48740668  0.34386618     0.36100
C574        C  0.99275675  0.48163477  0.36627524    -0.20000
C575        C  0.96630038  0.47454509  0.34135832    -0.25200
C576        C  0.96664496  0.47361017  0.29512285     0.27400
H577        H  0.04096107  0.49057246  0.28065787     0.13200
N578        N  0.04796512  0.49572058  0.36761049    -0.82500
H579        H  0.94536121  0.47025978  0.35793380     0.18000
N580        N  0.93965362  0.46728433  0.27033210    -0.81100
H581        H  0.06533825  0.49786855  0.34633815     0.33700
H582        H  0.05577619  0.51763115  0.38101764     0.38200
H583        H  0.92150527  0.46334681  0.29133690     0.33600
H584        H  0.94495325  0.48707842  0.25222518     0.30300
H585        H  0.04873613  0.55478621  0.20709167     0.33600
H586        H  0.02000595  0.54198254  0.24390640     0.30300
H587        H  0.97503864  0.42147276  0.11241745     0.38200
H588        H  0.94653643  0.40898808  0.14952410     0.33700
C589        C  0.95402352  0.54396752  0.03545218    -0.20100
C590        C  0.96473972  0.57517755  0.02495024     0.36100
C591        C  0.95069945  0.59041381  0.04473511    -0.26000
C592        C  0.92614844  0.57482451  0.07420454     0.02600
C593        C  0.91511356  0.54358049  0.08405887     0.27400
C594        C  0.92900869  0.52835641  0.06427299    -0.25200
N595        N  0.98944436  0.59105356  0.99395565    -0.82600
H596        H  0.95864627  0.61435877  0.03693843     0.13200
C597        C  0.91122159  0.59096728  0.09362502     0.02600
N598        N  0.89006552  0.52763561  0.11453908    -0.81100
H599        H  0.92093114  0.50445328  0.07254178     0.18000
C600        C  0.88171478  0.58323861  0.07907385    -0.26000
C601        C  0.86581342  0.59676456  0.09795138     0.36100
C602        C  0.87995752  0.61858456  0.13201199    -0.20000
C603        C  0.90986821  0.62682631  0.14587829    -0.25200
C604        C  0.92553065  0.61282241  0.12734104     0.27400
H605        H  0.87106498  0.56647779  0.05293139     0.13200
N606        N  0.83604479  0.58950842  0.08121118    -0.82500
H607        H  0.92082749  0.64394722  0.17149783     0.18000
N608        N  0.95570348  0.62045345  0.14267313    -0.81100
H609        H  0.83031296  0.57521759  0.05365794     0.33700
H610        H  0.81965137  0.57661952  0.10517041     0.38200
H611        H  0.96299502  0.63702983  0.16754849     0.33600
H612        H  0.95390627  0.60059699  0.15686625     0.30300
H613        H  0.88460070  0.50467042  0.11804745     0.33600
H614        H  0.89767777  0.53802326  0.14526113     0.30300
H615        H  0.98166692  0.58023212  0.96351469     0.38200
H616        H  0.99446670  0.61384402  0.98991788     0.33700
C617        C  0.33149110  0.15061850  0.79999417    -0.20100
C618        C  0.30922397  0.12386077  0.82222103     0.36100
C619        C  0.30968103  0.12257634  0.86824578    -0.26000
C620        C  0.33145283  0.14778605  0.89289333     0.02600
C621        C  0.35335170  0.17478019  0.87092658     0.27400
C622        C  0.35337819  0.17573651  0.82487826    -0.25200
N623        N  0.28609041  0.09787110  0.79844387    -0.82600
H624        H  0.29286285  0.10171496  0.88483651     0.13200
C625        C  0.33110423  0.14591740  0.94163736     0.02600
N626        N  0.37516727  0.20135223  0.89550337    -0.81100
H627        H  0.37021360  0.19664610  0.80844973     0.18000
C628        C  0.35835079  0.15275548  0.96383080    -0.26000
C629        C  0.35999256  0.15400575  0.00987173     0.36100
C630        C  0.33340533  0.14765109  0.03453147    -0.20000
C631        C  0.30572933  0.13929304  0.01213009    -0.25200
C632        C  0.30436673  0.13869054  0.96605872     0.27400
H633        H  0.37870112  0.15774949  0.94496150     0.13200
N634        N  0.38888942  0.16288684  0.03122076    -0.82500
H635        H  0.28520753  0.13421719  0.03058097     0.18000
N636        N  0.27620300  0.13178305  0.94404892    -0.81100
H637        H  0.40650405  0.16904040  0.00813041     0.33700
H638        H  0.38653559  0.14344442  0.04749327     0.38200
H639        H  0.25866157  0.12683803  0.96675401     0.33600
H640        H  0.28017216  0.15166769  0.92724896     0.30300
H641        H  0.38975096  0.21925909  0.87446345     0.33600
H642        H  0.36269753  0.20931535  0.91340967     0.30300
H643        H  0.26444494  0.09365655  0.80912844     0.38200
H644        H  0.28810517  0.07864834  0.80641810     0.33700
C645        C  0.34397507  0.18407973  0.29986757    -0.20100
C646        C  0.32689968  0.19586200  0.32110793     0.36100
C647        C  0.32586995  0.19602030  0.36726398    -0.26000
C648        C  0.34169518  0.18486727  0.39233069     0.02600
C649        C  0.36010431  0.17475258  0.37126531     0.27400
C650        C  0.36112704  0.17453211  0.32527128    -0.25200
N651        N  0.31049836  0.20733299  0.29585911    -0.82600
H652        H  0.31203992  0.20408004  0.38379121     0.13200
C653        C  0.33750504  0.18209453  0.44052376     0.02600
N654        N  0.37710474  0.16408587  0.39679693    -0.81100
H655        H  0.37443614  0.16567208  0.30924090     0.18000
C656        C  0.32297348  0.15259169  0.45931160    -0.26000
C657        C  0.31995998  0.14864345  0.50498988     0.36100
C658        C  0.33128961  0.17487245  0.53242535    -0.20000
C659        C  0.34548191  0.20442004  0.51347760    -0.25200
C660        C  0.34866249  0.20828991  0.46767000     0.27400
H661        H  0.31453752  0.13258006  0.43813693     0.13200
N662        N  0.30647025  0.11818674  0.52355321    -0.82500
H663        H  0.35433044  0.22452507  0.53451121     0.18000
N664        N  0.36357993  0.23862854  0.44862401    -0.81100
H665        H  0.29909850  0.10151439  0.49881318     0.33700
H666        H  0.32382220  0.11681309  0.54080544     0.38200
H667        H  0.37037112  0.25542990  0.47310557     0.33600
H668        H  0.38377751  0.24209420  0.43331539     0.30300
H669        H  0.38927782  0.15712399  0.37633038     0.33600
H670        H  0.39356932  0.18280115  0.41503166     0.30300
H671        H  0.32687658  0.22671147  0.27858928     0.38200
H672        H  0.29894518  0.21490380  0.31653163     0.33700
C673        C  0.45388772  0.04237574  0.54061463    -0.20100
C674        C  0.43024715  0.02629708  0.57190097     0.36100
C675        C  0.41443496  0.04040817  0.58956386    -0.26000
C676        C  0.42221318  0.07045825  0.57752050     0.02600
C677        C  0.44628551  0.08683534  0.54710964     0.27400
C678        C  0.46191214  0.07262992  0.52901511    -0.25200
N679        N  0.42311529  0.99618335  0.58685224    -0.82600
H680        H  0.39639995  0.02821091  0.61366904     0.13200
C681        C  0.40528165  0.08467308  0.59764287     0.02600
N682        N  0.45467511  0.11777016  0.53467815    -0.81100
H683        H  0.48033471  0.08516771  0.50556968     0.18000
C684        C  0.42159797  0.11164273  0.62252449    -0.26000
C685        C  0.40666285  0.12638310  0.64080308     0.36100
C686        C  0.37463247  0.11402091  0.63423201    -0.20000
C687        C  0.35809643  0.08627481  0.61069393    -0.25200
C688        C  0.37313662  0.07158854  0.59209777     0.27400
H689        H  0.44619349  0.12144242  0.62759835     0.13200
N690        N  0.42421995  0.15389102  0.66609768    -0.82500
H691        H  0.33356833  0.07661741  0.60526475     0.18000
N692        N  0.35607891  0.04388170  0.56669675    -0.81100
H693        H  0.43443254  0.14872450  0.69221144     0.33700
H694        H  0.44184521  0.17024140  0.64616699     0.38200
H695        H  0.33265796  0.03720183  0.56580627     0.33600
H696        H  0.36411445  0.04892385  0.53437507     0.30300
H697        H  0.47297188  0.12667756  0.51230148     0.33600
H698        H  0.43580623  0.11675435  0.51834224     0.30300
H699        H  0.44251866  0.99864830  0.60349482     0.38200
H700        H  0.40513418  0.98757663  0.60972615     0.33700
C701        C  0.03955874  0.44850341  0.95637786    -0.20100
C702        C  0.02353729  0.42267682  0.92832590     0.36100
C703        C  0.03897442  0.40801633  0.91119522    -0.26000
C704        C  0.07012485  0.41884330  0.92080078     0.02600
C705        C  0.08616798  0.44462748  0.94856472     0.27400
C706        C  0.07078715  0.45929436  0.96583418    -0.25200
N707        N  0.99200925  0.41199938  0.91610697    -0.82600
H708        H  0.02689553  0.38850382  0.88928741     0.13200
C709        C  0.08599882  0.40350580  0.90075918     0.02600
N710        N  0.11800786  0.45569700  0.95922852    -0.81100
H711        H  0.08322184  0.47914908  0.98703509     0.18000
C712        C  0.11234420  0.42100619  0.87495399    -0.26000
C713        C  0.12907207  0.40792765  0.85711334     0.36100
C714        C  0.11903971  0.37646275  0.86501206    -0.20000
C715        C  0.09197745  0.35872056  0.88962102    -0.25200
C716        C  0.07548530  0.37195057  0.90782936     0.27400
H717        H  0.11996618  0.44510633  0.86892482     0.13200
N718        N  0.15612530  0.42653126  0.83106449    -0.82500
H719        H  0.08417137  0.33462090  0.89596315     0.18000
N720        N  0.04854719  0.35367146  0.93427968    -0.81100
H721        H  0.16057217  0.44924761  0.82914873     0.33700
H722        H  0.15142901  0.41777736  0.79908196     0.38200
H723        H  0.04385591  0.33086751  0.93619646     0.33600
H724        H  0.05349712  0.36250024  0.96620182     0.30300
H725        H  0.12653550  0.47496520  0.97977819     0.33600
H726        H  0.11903512  0.43838112  0.97705054     0.30300
H727        H  0.99172904  0.42931831  0.89724137     0.38200
H728        H  0.98357695  0.39254747  0.89593502     0.33700
C729        C  0.28967205  0.21265330  0.70119955    -0.20100
C730        C  0.29475163  0.22347005  0.74494193     0.36100
C731        C  0.28052632  0.23948743  0.76056892    -0.26000
C732        C  0.26123005  0.24505018  0.73344478     0.02600
C733        C  0.25616143  0.23445294  0.68959680     0.27400
C734        C  0.27040291  0.21815012  0.67387607    -0.25200
N735        N  0.31348497  0.21763337  0.77460354    -0.82600
H736        H  0.28438847  0.24751383  0.79427083     0.13200
C737        C  0.24596673  0.26136492  0.75201114     0.02600
N738        N  0.23636270  0.24000490  0.66151878    -0.81100
H739        H  0.26653131  0.20975724  0.64037287     0.18000
C740        C  0.25348498  0.29046326  0.73563106    -0.26000
C741        C  0.23952150  0.30661689  0.75270344     0.36100
C742        C  0.21776620  0.29336840  0.78712440    -0.20000
C743        C  0.21034867  0.26424188  0.80346109    -0.25200
C744        C  0.22430647  0.24813954  0.78634174     0.27400
H745        H  0.27018659  0.30047690  0.70927388     0.13200
N746        N  0.24671766  0.33595303  0.73438505    -0.82500
H747        H  0.19351392  0.25397774  0.82961025     0.18000
N748        N  0.21642348  0.21828974  0.80336300    -0.81100
H749        H  0.26331352  0.34248104  0.70963226     0.33700
H750        H  0.22670880  0.33322854  0.71934453     0.38200
H751        H  0.20027869  0.21190842  0.82873238     0.33600
H752        H  0.20568745  0.20222697  0.77814782     0.30300
H753        H  0.23519164  0.23086443  0.63028015     0.33600
H754        H  0.21406001  0.22801381  0.67464027     0.30300
H755        H  0.33586549  0.22764982  0.76190338     0.38200
H756        H  0.30440751  0.19380241  0.77673193     0.33700
C757        C  0.48048580  0.48710544  0.89036440    -0.20100
C758        C  0.45132661  0.47544263  0.86991272     0.36100
C759        C  0.44942680  0.47442792  0.82379180    -0.26000
C760        C  0.47592753  0.48455729  0.79798862     0.02600
C761        C  0.50469316  0.49460015  0.81817500     0.27400
C762        C  0.50671060  0.49580235  0.86413164    -0.25200
N763        N  0.42385468  0.46496483  0.89584901    -0.82600
H764        H  0.42736697  0.46650816  0.80782790     0.13200
C765        C  0.47395965  0.48730482  0.74997148     0.02600
N766        N  0.53183852  0.50430480  0.79175020    -0.81100
H767        H  0.52910718  0.50456594  0.87942869     0.18000
C768        C  0.48462130  0.51666922  0.73211526    -0.26000
C769        C  0.48540351  0.52114291  0.68653387     0.36100
C770        C  0.47500681  0.49542953  0.65808817    -0.20000
C771        C  0.46337874  0.46581750  0.67644592    -0.25200
C772        C  0.46285985  0.46152909  0.72213482     0.27400
H773        H  0.49311342  0.53632837  0.75399449     0.13200
N774        N  0.49764517  0.55181315  0.66933321    -0.82500
H775        H  0.45522444  0.44596405  0.65505141     0.18000
N776        N  0.45162796  0.43127035  0.74034729    -0.81100
H777        H  0.50326862  0.56778738  0.69476607     0.33700
H778        H  0.51837748  0.55760070  0.65358447     0.38200
H779        H  0.44409515  0.41472727  0.71539376     0.33600
H780        H  0.47020651  0.43102826  0.75565001     0.30300
H781        H  0.55129035  0.51142907  0.81162046     0.33600
H782        H  0.52894179  0.48505725  0.77428661     0.30300
H783        H  0.42058587  0.44568434  0.91362824     0.38200
H784        H  0.40449847  0.45747646  0.87567064     0.33700
C785        C  0.50882271  0.52067694  0.15670481    -0.20100
C786        C  0.53447194  0.52226994  0.17909685     0.36100
C787        C  0.53506786  0.52273529  0.22530049    -0.26000
C788        C  0.51111970  0.52240651  0.24953531     0.02600
C789        C  0.48628478  0.52216236  0.22748399     0.27400
C790        C  0.48543357  0.52140514  0.18143271    -0.25200
N791        N  0.55967851  0.52313513  0.15519341    -0.82600
H792        H  0.55428343  0.52333775  0.24261517     0.13200
C793        C  0.51175334  0.52160874  0.29812630     0.02600
N794        N  0.46163716  0.52195108  0.25206806    -0.81100
H795        H  0.46581997  0.52046966  0.16491166     0.18000
C796        C  0.51427701  0.54665826  0.32199651    -0.26000
C797        C  0.51249751  0.54587552  0.36808374     0.36100
C798        C  0.50754040  0.51904536  0.39084586    -0.20000
C799        C  0.50621968  0.49444459  0.36658945    -0.25200
C800        C  0.50813988  0.49541121  0.32053324     0.27400
H801        H  0.51734420  0.56682358  0.30440444     0.13200
N802        N  0.51530186  0.57209510  0.39147826    -0.82500
H803        H  0.50272656  0.47388222  0.38342814     0.18000
N804        N  0.50557342  0.46956604  0.29632744    -0.81100
H805        H  0.51761996  0.58925626  0.36965855     0.33700
H806        H  0.53583602  0.58155726  0.40946117     0.38200
H807        H  0.50312727  0.45213194  0.31769213     0.33600
H808        H  0.48528105  0.46035500  0.27781014     0.30300
H809        H  0.44517454  0.52197309  0.23097377     0.33600
H810        H  0.45049349  0.50123097  0.26962824     0.30300
H811        H  0.57080927  0.54410471  0.13823268     0.38200
H812        H  0.57603152  0.52326942  0.17669591     0.33700
C813        C  0.84590670  0.17593905  0.79576207    -0.20100
C814        C  0.81992620  0.16872573  0.82248887     0.36100
C815        C  0.82316568  0.17060194  0.86836229    -0.26000
C816        C  0.85158699  0.17941175  0.88845732     0.02600
C817        C  0.87752552  0.18673423  0.86209655     0.27400
C818        C  0.87439087  0.18475894  0.81609903    -0.25200
N819        N  0.79014526  0.15884994  0.80330776    -0.82600
H820        H  0.80318352  0.16458336  0.88876511     0.13200
C821        C  0.85345390  0.18053532  0.93722439     0.02600
N822        N  0.90697701  0.19638251  0.88214492    -0.81100
H823        H  0.89439442  0.19030925  0.79604806     0.18000
C824        C  0.86303298  0.16228431  0.95969511    -0.26000
C825        C  0.86278385  0.16105872  0.00590290     0.36100
C826        C  0.85212948  0.17803757  0.03010973    -0.20000
C827        C  0.84366460  0.19713957  0.00741786    -0.25200
C828        C  0.84433378  0.19865529  0.96138368     0.27400
H829        H  0.87014136  0.14846171  0.94104939     0.13200
N830        N  0.87311285  0.14252532  0.02814933    -0.82500
H831        H  0.83556097  0.21032086  0.02557671     0.18000
N832        N  0.83540689  0.21825496  0.93894903    -0.81100
H833        H  0.87990168  0.13134125  0.00553063     0.33700
H834        H  0.89283437  0.15745977  0.04608256     0.38200
H835        H  0.82906666  0.22989177  0.96141041     0.33600
H836        H  0.85480824  0.23510239  0.92223783     0.30300
H837        H  0.92370104  0.20086526  0.85823714     0.33600
H838        H  0.91378961  0.21727127  0.89823872     0.30300
H839        H  0.78256328  0.13720441  0.78911708     0.38200
H840        H  0.77396190  0.15566273  0.82746701     0.33700
C841        C  0.82469860  0.14851622  0.52744338    -0.20100
C842        C  0.84869085  0.15169169  0.49922774     0.36100
C843        C  0.84507422  0.15228294  0.45348670    -0.26000
C844        C  0.81803162  0.14936857  0.43532072     0.02600
C845        C  0.79384944  0.14542478  0.46296794     0.27400
C846        C  0.79733946  0.14489960  0.50864098    -0.25200
N847        N  0.87689566  0.15507245  0.51676715    -0.82600
H848        H  0.86352868  0.15526460  0.43175234     0.13200
C849        C  0.81588063  0.15170962  0.38720505     0.02600
N850        N  0.76609862  0.14258600  0.44450684    -0.81100
H851        H  0.77875138  0.14240043  0.52963684     0.18000
C852        C  0.79780252  0.12498764  0.36247158    -0.26000
C853        C  0.79675313  0.12634435  0.31639002     0.36100
C854        C  0.81396679  0.15506647  0.29499329    -0.20000
C855        C  0.83093600  0.18192150  0.32012805    -0.25200
C856        C  0.83223259  0.18048950  0.36604041     0.27400
H857        H  0.78501754  0.10300074  0.37916082     0.13200
N858        N  0.77851167  0.09874896  0.29127696    -0.82500
H859        H  0.84434860  0.20395577  0.30375968     0.18000
N860        N  0.85062789  0.20799870  0.39128411    -0.81100
H861        H  0.76738811  0.07959210  0.31200166     0.33700
H862        H  0.76117274  0.10102645  0.27558186     0.38200
H863        H  0.86158761  0.22724988  0.37071128     0.33600
H864        H  0.83565939  0.21145391  0.41133898     0.30300
H865        H  0.75042472  0.13970773  0.46930466     0.33600
H866        H  0.77199546  0.16341174  0.42883994     0.30300
H867        H  0.87158152  0.13405649  0.53129720     0.38200
H868        H  0.89259544  0.15877986  0.49159297     0.33700
C869        C  0.15287214  0.33736208  0.69474898    -0.20100
C870        C  0.12361475  0.31923542  0.67481684     0.36100
C871        C  0.12122995  0.31803277  0.62865223    -0.26000
C872        C  0.14731135  0.33492992  0.60214268     0.02600
C873        C  0.17633049  0.35349031  0.62187226     0.27400
C874        C  0.17878847  0.35467253  0.66787122    -0.25200
N875        N  0.09644244  0.30236693  0.70137336    -0.82600
H876        H  0.09894952  0.30401657  0.61320011     0.13200
C877        C  0.14427292  0.33309490  0.55360992     0.02600
N878        N  0.20328110  0.37067599  0.59497995    -0.81100
H879        H  0.20131151  0.36846302  0.68274558     0.18000
C880        C  0.14762151  0.35867934  0.53023723    -0.26000
C881        C  0.14771949  0.35906791  0.48401899     0.36100
C882        C  0.14496995  0.33331964  0.46053390    -0.20000
C883        C  0.14033023  0.30721193  0.48439292    -0.25200
C884        C  0.14004490  0.30688687  0.53058604     0.27400
H885        H  0.15069075  0.37867460  0.54829449     0.13200
N886        N  0.15163928  0.38594741  0.46122948    -0.82500
H887        H  0.13793055  0.28725080  0.46702144     0.18000
N888        N  0.13638184  0.28040032  0.55423551    -0.81100
H889        H  0.15492319  0.40325760  0.48344065     0.33700
H890        H  0.13095200  0.37967225  0.44487526     0.38200
H891        H  0.13337700  0.26295779  0.53248276     0.33600
H892        H  0.15694815  0.28702302  0.57116424     0.30300
H893        H  0.22284867  0.38331643  0.61450012     0.33600
H894        H  0.20689128  0.35479447  0.57744960     0.30300
H895        H  0.09316555  0.31847614  0.71884972     0.38200
H896        H  0.07691186  0.29012196  0.68161173     0.33700
C897        C  0.18659448  0.34371622  0.19525774    -0.20100
C898        C  0.19913868  0.32700696  0.17459937     0.36100
C899        C  0.20142833  0.32727995  0.12841495    -0.26000
C900        C  0.19101702  0.34331437  0.10238502     0.02600
C901        C  0.17879859  0.36015422  0.12267547     0.27400
C902        C  0.17708205  0.36049843  0.16875258    -0.25200
N903        N  0.20952808  0.30982194  0.20021045    -0.82600
H904        H  0.21047335  0.31410160  0.11247616     0.13200
C905        C  0.19019419  0.33988724  0.05390358     0.02600
N906        N  0.16686642  0.37567653  0.09632534    -0.81100
H907        H  0.16710224  0.37306546  0.18394131     0.18000
C908        C  0.16449911  0.31476420  0.03479961    -0.26000
C909        C  0.16154947  0.31107990  0.98895471     0.36100
C910        C  0.18463977  0.33364909  0.96122270    -0.20000
C911        C  0.21101323  0.35826805  0.98082658    -0.25200
C912        C  0.21408773  0.36147917  0.02685220     0.27400
H913        H  0.14645460  0.29802158  0.05594444     0.13200
N914        N  0.13479817  0.28479626  0.97079407    -0.82500
H915        H  0.22909726  0.37545774  0.96023282     0.18000
N916        N  0.24141257  0.38640399  0.04620541    -0.81100
H917        H  0.11947967  0.27142119  0.99560510     0.33700
H918        H  0.14228139  0.27087141  0.95587999     0.38200
H919        H  0.25706099  0.39996667  0.02182085     0.33600
H920        H  0.23509438  0.40066240  0.06280286     0.30300
H921        H  0.15781118  0.38624781  0.11623999     0.33600
H922        H  0.18530926  0.39338013  0.07917938     0.30300
H923        H  0.18993431  0.29034368  0.21236470     0.38200
H924        H  0.22069813  0.30143821  0.18022393     0.33700
C925        C  0.07503350  0.28879232  0.28761143    -0.20100
C926        C  0.06368297  0.30168657  0.25658029     0.36100
C927        C  0.03266605  0.28490768  0.24363717    -0.26000
C928        C  0.01304705  0.25528119  0.26003239     0.02600
C929        C  0.02432592  0.24195640  0.29015468     0.27400
C930        C  0.05533938  0.25887383  0.30367768    -0.25200
N931        N  0.08387325  0.33137484  0.23738162    -0.82600
H932        H  0.02381294  0.29467259  0.21989001     0.13200
C933        C  0.98099605  0.23835669  0.24377756     0.02600
N934        N  0.00424777  0.21140878  0.30675918    -0.81100
H935        H  0.06405215  0.24887743  0.32724523     0.18000
C936        C  0.97312894  0.21572774  0.21144973    -0.26000
C937        C  0.94378058  0.20134886  0.19184330     0.36100
C938        C  0.92191125  0.20958485  0.20547531    -0.20000
C939        C  0.92984637  0.23215569  0.23809461    -0.25200
C940        C  0.95921477  0.24657957  0.25750976     0.27400
H941        H  0.99027173  0.20996478  0.20066492     0.13200
N942        N  0.93640637  0.17911603  0.15737977    -0.82500
H943        H  0.91291591  0.23821367  0.24891212     0.18000
N944        N  0.96717070  0.26967061  0.29086419    -0.81100
H945        H  0.95508166  0.17577432  0.15120250     0.33700
H946        H  0.93285279  0.18839464  0.12867710     0.38200
H947        H  0.94860366  0.27320076  0.29704196     0.33600
H948        H  0.97118413  0.26112355  0.31992900     0.30300
H949        H  0.01616984  0.20490023  0.32845904     0.33600
H950        H  0.98688372  0.21206430  0.32501123     0.30300
H951        H  0.10049923  0.32943727  0.21904059     0.38200
H952        H  0.07183556  0.33745742  0.21524820     0.33700
C953        C  0.25386735  0.38842620  0.37714199    -0.20100
C954        C  0.27524194  0.37781115  0.37815315     0.36100
C955        C  0.30209192  0.39355048  0.40381483    -0.26000
C956        C  0.30812543  0.41965452  0.42854103     0.02600
C957        C  0.28696740  0.43047536  0.42724123     0.27400
C958        C  0.26025909  0.41493774  0.40129093    -0.25200
N959        N  0.26979920  0.35129006  0.35292512    -0.82600
H960        H  0.31870760  0.38568154  0.40406411     0.13200
C961        C  0.33764283  0.43630476  0.45334671     0.02600
N962        N  0.29241994  0.45685302  0.45287084    -0.81100
H963        H  0.24378016  0.42298070  0.40124135     0.18000
C964        C  0.35807951  0.46746276  0.44391781    -0.26000
C965        C  0.38771571  0.48321119  0.46260301     0.36100
C966        C  0.39752936  0.46710087  0.49041614    -0.20000
C967        C  0.37657104  0.43623308  0.50124113    -0.25200
C968        C  0.34653004  0.42086394  0.48366517     0.27400
H969        H  0.35123116  0.47930518  0.42065833     0.13200
N970        N  0.40836806  0.51494912  0.45129296    -0.82500
H971        H  0.38377966  0.42397268  0.52316435     0.18000
N972        N  0.32510811  0.38954218  0.49600011    -0.81100
H973        H  0.39834589  0.52250732  0.42787125     0.33700
H974        H  0.41136718  0.52812416  0.47941630     0.38200
H975        H  0.33520634  0.38149929  0.51856063     0.33600
H976        H  0.30666229  0.38950901  0.51220639     0.30300
H977        H  0.27471078  0.46190393  0.44816204     0.33600
H978        H  0.29173033  0.45101201  0.48596931     0.30300
H979        H  0.27034741  0.35691410  0.31974829     0.38200
H980        H  0.28760008  0.34638223  0.35765079     0.33700
C981        C  0.51662313  0.01109805  0.86433393    -0.20100
C982        C  0.53471637  0.99967859  0.84538004     0.36100
C983        C  0.53655368  0.99847904  0.79934913    -0.26000
C984        C  0.52072661  0.00852980  0.77217383     0.02600
C985        C  0.50386428  0.02126129  0.79102713     0.27400
C986        C  0.50203644  0.02250036  0.83695770    -0.25200
N987        N  0.55110155  0.98937206  0.87293209    -0.82600
H988        H  0.54977736  0.98906826  0.78456719     0.13200
C989        C  0.52039585  0.00413920  0.72403077     0.02600
N990        N  0.48818567  0.03229284  0.76330288    -0.81100
H991        H  0.48827721  0.03140958  0.85144036     0.18000
C992        C  0.49319718  0.98139909  0.70429902    -0.26000
C993        C  0.49074646  0.97774593  0.65845344     0.36100
C994        C  0.51611672  0.99779076  0.63157989    -0.20000
C995        C  0.54378702  0.01976220  0.65183759    -0.25200
C996        C  0.54615741  0.02314025  0.69776393     0.27400
H997        H  0.47358063  0.96673146  0.72490726     0.09600
N998        N  0.46216425  0.95460870  0.63937766    -0.82500
H999        H  0.56342135  0.03505045  0.63172194     0.18000
N1000       N  0.57430604  0.04630118  0.71776513    -0.81100
H1001       H  0.44539261  0.94336892  0.66362416     0.33700
H1002       H  0.46615986  0.93782464  0.62548695     0.38200
H1003       H  0.59113956  0.05829028  0.69387136     0.33600
H1004       H  0.56973549  0.06238611  0.73275639     0.30300
H1005       H  0.47655028  0.04069750  0.78223711     0.33600
H1006       H  0.50498398  0.05101726  0.74542092     0.30300
H1007       H  0.56755985  0.00849093  0.89052287     0.38200
H1008       H  0.56329448  0.98166495  0.85387054     0.33700
C1009       C  0.48229919  0.00158133  0.13106502    -0.20100
C1010       C  0.47675553  0.97577846  0.15703938     0.36100
C1011       C  0.47686879  0.97798451  0.20310117    -0.26000
C1012       C  0.48180977  0.00505463  0.22390976     0.02600
C1013       C  0.48578338  0.03019440  0.19829800     0.27400
C1014       C  0.48611637  0.02827585  0.15227418    -0.25200
N1015       N  0.47149366  0.94758608  0.13687349    -0.82600
H1016       H  0.47368407  0.95866093  0.22301209     0.13200
C1017       C  0.48436903  0.00724885  0.27252860     0.02600
N1018       N  0.48979245  0.05769597  0.21923962    -0.81100
H1019       H  0.49007326  0.04810211  0.13297957     0.18000
C1020       C  0.51233960  0.02919738  0.29156749    -0.26000
C1021       C  0.51678057  0.03054915  0.33729486     0.36100
C1022       C  0.49235748  0.00966590  0.36486235    -0.20000
C1023       C  0.46405619  0.98822604  0.34550304    -0.25200
C1024       C  0.45983666  0.98682375  0.29973091     0.27400
H1025       H  0.53120927  0.04467525  0.27040251     0.13200
N1026       N  0.54630931  0.05241291  0.35539975    -0.82500
H1027       H  0.44512784  0.97222921  0.36611940     0.18000
N1028       N  0.43079967  0.96465311  0.28067314    -0.81100
H1029       H  0.56120107  0.06669845  0.33076750     0.33700
H1030       H  0.55626262  0.03996216  0.36786397     0.38200
H1031       H  0.41513111  0.95121010  0.30510997     0.33600
H1032       H  0.42153294  0.97687878  0.26528308     0.30300
H1033       H  0.49258960  0.07417157  0.19582641     0.33600
H1034       H  0.46941523  0.05182700  0.23623544     0.30300
H1035       H  0.45048968  0.93821739  0.12007666     0.38200
H1036       H  0.46882240  0.93137278  0.16067423     0.33700
C1037       C  0.58984174  0.04749663  0.03335053    -0.20100
C1038       C  0.60938997  0.03527409  0.02472211     0.36100
C1039       C  0.63920195  0.04968115  0.04302386    -0.26000
C1040       C  0.64974238  0.07599430  0.06945707     0.02600
C1041       C  0.63027091  0.08813178  0.07813996     0.27400
C1042       C  0.60064536  0.07393985  0.05969040    -0.25200
N1043       N  0.59913426  0.00866336  0.99702399    -0.82600
H1044       H  0.65446160  0.04065849  0.03624725     0.13200
C1045       C  0.68154575  0.09129553  0.08704624     0.02600
N1046       N  0.64060228  0.11460987  0.10616469    -0.81100
H1047       H  0.58557806  0.08310712  0.06696279     0.18000
C1048       C  0.70252235  0.12139534  0.07334832    -0.26000
C1049       C  0.73280467  0.13707286  0.08961772     0.36100
C1050       C  0.74214790  0.12226877  0.12045642    -0.20000
C1051       C  0.72120710  0.09198682  0.13376246    -0.25200
C1052       C  0.69081518  0.07644301  0.11770171     0.27400
H1053       H  0.69522698  0.13255203  0.04954450     0.13200
N1054       N  0.75423973  0.16762954  0.07417858    -0.82500
H1055       H  0.72844203  0.08065345  0.15734556     0.18000
N1056       N  0.66920189  0.04587614  0.13279350    -0.81100
H1057       H  0.74356238  0.17519749  0.05186346     0.33700
H1058       H  0.77165330  0.16642616  0.05684439     0.38200
H1059       H  0.67969946  0.03824524  0.15531837     0.33600
H1060       H  0.65169715  0.04710882  0.14981389     0.30300
H1061       H  0.62351750  0.12070315  0.10922915     0.33600
H1062       H  0.64398315  0.10831263  0.13751789     0.30300
H1063       H  0.59584722  0.01483185  0.96553475     0.38200
H1064       H  0.61625253  0.00259311  0.99425804     0.33700
C1065       C  0.18536907  0.85005878  0.69080031    -0.20100
C1066       C  0.18095428  0.87198749  0.66709820     0.36100
C1067       C  0.18201560  0.87221684  0.62086121    -0.26000
C1068       C  0.18811131  0.85168799  0.59765539     0.02600
C1069       C  0.19414132  0.83099444  0.62098543     0.27400
C1070       C  0.19271618  0.83037999  0.66716696    -0.25200
N1071       N  0.17457703  0.89341120  0.68965612    -0.82600
H1072       H  0.17764571  0.88824235  0.60264748     0.13200
C1073       C  0.18592465  0.85059478  0.54893118     0.02600
N1074       N  0.20083105  0.81007732  0.59759369    -0.81100
H1075       H  0.19653394  0.81375071  0.68467386     0.18000
C1076       C  0.21249831  0.86018101  0.52332903    -0.26000
C1077       C  0.21080870  0.85839920  0.47709862     0.36100
C1078       C  0.18177888  0.84654772  0.45608069    -0.20000
C1079       C  0.15535817  0.83748575  0.48205744    -0.25200
C1080       C  0.15709514  0.83911169  0.52811760     0.27400
H1081       H  0.23460646  0.86903455  0.53956029     0.13200
N1082       N  0.23843989  0.86860329  0.45163342    -0.82500
H1083       H  0.13298112  0.82805828  0.46646584     0.18000
N1084       N  0.12956511  0.82847317  0.55400108    -0.81100
H1085       H  0.25766322  0.87624495  0.47212656     0.33700
H1086       H  0.24185834  0.88772733  0.43330455     0.38200
H1087       H  0.11020148  0.82071983  0.53376753     0.33600
H1088       H  0.12647186  0.80935374  0.57203952     0.30300
H1089       H  0.20489298  0.79642728  0.61951477     0.33600
H1090       H  0.18114904  0.79507261  0.57963873     0.30300
H1091       H  0.19457184  0.90873681  0.70675981     0.38200
H1092       H  0.17044200  0.90677622  0.66727911     0.33700
C1093       C  0.14795315  0.81921827  0.95676984    -0.20100
C1094       C  0.13543813  0.78993660  0.97695533     0.36100
C1095       C  0.13557657  0.78788192  0.02305474    -0.26000
C1096       C  0.14783541  0.81441941  0.04929262     0.02600
C1097       C  0.15929253  0.84354889  0.02930940     0.27400
C1098       C  0.15914054  0.84563729  0.98331913    -0.25200
N1099       N  0.12278168  0.76244787  0.95064916    -0.82600
H1100       H  0.12667271  0.76555838  0.03863066     0.13200
C1101       C  0.14982855  0.81172433  0.09757619     0.02600
N1102       N  0.17149371  0.87091699  0.05587698    -0.81100
H1103       H  0.16883714  0.86816842  0.96811468     0.18000
C1104       C  0.17901878  0.82549606  0.11726527    -0.26000
C1105       C  0.18227742  0.82550882  0.16303945     0.36100
C1106       C  0.15561417  0.81117804  0.18989802    -0.20000
C1107       C  0.12632652  0.79657151  0.16998103    -0.25200
C1108       C  0.12318512  0.79652799  0.12399237     0.27400
H1109       H  0.19940282  0.83694463  0.09672093     0.13200
N1110       N  0.21258794  0.84112891  0.18229316    -0.82500
H1111       H  0.10585374  0.78555951  0.19038824     0.18000
N1112       N  0.09312499  0.78163613  0.10403682    -0.81100
H1113       H  0.22962639  0.84980096  0.15793482     0.33700
H1114       H  0.21482344  0.86023224  0.19939706     0.38200
H1115       H  0.07591641  0.77133594  0.12796021     0.33600
H1116       H  0.09008126  0.79869433  0.08898863     0.30300
H1117       H  0.17930065  0.89053779  0.03615799     0.33600
H1118       H  0.15336333  0.86942568  0.07479869     0.30300
H1119       H  0.10353371  0.76048553  0.93423382     0.38200
H1120       H  0.11476205  0.74288879  0.97055861     0.33700
C1121       C  0.25581621  0.88276456  0.86836335    -0.20100
C1122       C  0.27755656  0.87265182  0.86410059     0.36100
C1123       C  0.30646776  0.88934698  0.88481582    -0.26000
C1124       C  0.31389345  0.91528365  0.91082247     0.02600
C1125       C  0.29214078  0.92511020  0.91572889     0.27400
C1126       C  0.26358522  0.90904341  0.89404406    -0.25200
N1127       N  0.27061094  0.84587032  0.83836062    -0.82600
H1128       H  0.32336795  0.88202487  0.88080149     0.13200
C1129       C  0.34489866  0.93229334  0.93166450     0.02600
N1130       N  0.29896565  0.95108738  0.94326271    -0.81100
H1131       H  0.24693799  0.91665770  0.89831243     0.18000
C1132       C  0.36424747  0.96366492  0.92210483    -0.26000
C1133       C  0.39473140  0.97991581  0.93786397     0.36100
C1134       C  0.40625211  0.96426993  0.96348454    -0.20000
C1135       C  0.38640664  0.93314098  0.97435310    -0.25200
C1136       C  0.35575793  0.91714250  0.95924931     0.27400
H1137       H  0.35583106  0.97527020  0.90096672     0.13200
N1138       N  0.41417981  0.01189521  0.92661839    -0.82500
H1139       H  0.39485946  0.92119146  0.99470059     0.18000
N1140       N  0.33558025  0.88555289  0.97172854    -0.81100
H1141       H  0.40183462  0.02002369  0.90879553     0.33700
H1142       H  0.43150233  0.01347234  0.90573305     0.38200
H1143       H  0.34707683  0.87778872  0.99217195     0.33600
H1144       H  0.31764449  0.88478746  0.99033597     0.30300
H1145       H  0.28054811  0.95537019  0.94340812     0.33600
H1146       H  0.30125860  0.94520817  0.97543349     0.30300
H1147       H  0.25452584  0.82653920  0.85597877     0.38200
H1148       H  0.29012985  0.84348481  0.83527837     0.33700
C1149       C  0.81055564  0.65227566  0.80314678    -0.20100
C1150       C  0.80539928  0.67395621  0.82610867     0.36100
C1151       C  0.80662407  0.67482094  0.87226742    -0.26000
C1152       C  0.81226782  0.65424697  0.89610719     0.02600
C1153       C  0.81600700  0.63174068  0.87369029     0.27400
C1154       C  0.81497180  0.63087241  0.82751803    -0.25200
N1155       N  0.79931204  0.69529014  0.80270655    -0.82600
H1156       H  0.80338069  0.69179899  0.88987859     0.13200
C1157       C  0.81508933  0.65714745  0.94457379     0.02600
N1158       N  0.82166886  0.61041038  0.89791288    -0.81100
H1159       H  0.81887722  0.61411933  0.81054446     0.18000
C1160       C  0.79198738  0.63450185  0.97097493    -0.26000
C1161       C  0.79424659  0.63604342  0.01707239     0.36100
C1162       C  0.82000416  0.66149880  0.03736260    -0.20000
C1163       C  0.84297637  0.68424656  0.01036985    -0.25200
C1164       C  0.84096403  0.68209893  0.96432284     0.27400
H1165       H  0.77232544  0.61522318  0.95540051     0.13200
N1166       N  0.77065572  0.61153689  0.04291009    -0.82500
H1167       H  0.86302938  0.70353367  0.02515198     0.18000
N1168       N  0.86533564  0.70489640  0.93742650    -0.81100
H1169       H  0.75258797  0.59585664  0.02294974     0.33700
H1170       H  0.78038289  0.59923544  0.05674344     0.38200
H1171       H  0.88280044  0.72177731  0.95693965     0.33600
H1172       H  0.87524450  0.69387518  0.92035453     0.30300
H1173       H  0.82385000  0.59524603  0.87660263     0.33600
H1174       H  0.84293930  0.62313938  0.91377700     0.30300
H1175       H  0.77806235  0.68242521  0.78687149     0.38200
H1176       H  0.79680241  0.71004243  0.82447434     0.33700
C1177       C  0.85131943  0.66403711  0.30508484    -0.20100
C1178       C  0.82682660  0.64404511  0.33339326     0.36100
C1179       C  0.83096029  0.64722140  0.37905224    -0.26000
C1180       C  0.85890167  0.66941427  0.39752469     0.02600
C1181       C  0.88379269  0.68859297  0.36993361     0.27400
C1182       C  0.87976599  0.68575530  0.32395390    -0.25200
N1183       N  0.79741052  0.62121053  0.31608624    -0.82600
H1184       H  0.81199055  0.63253891  0.40065040     0.13200
C1185       C  0.86022139  0.67320195  0.44589446     0.02600
N1186       N  0.91279126  0.71109745  0.38867147    -0.81100
H1187       H  0.89876112  0.70099712  0.30283206     0.18000
C1188       C  0.87227304  0.65866565  0.47202607    -0.26000
C1189       C  0.86857607  0.65715649  0.51804075     0.36100
C1190       C  0.85223256  0.67024093  0.53801750    -0.20000
C1191       C  0.84179609  0.68627144  0.51177090    -0.25200
C1192       C  0.84552400  0.68776171  0.46596879     0.27400
H1193       H  0.88360627  0.64756650  0.45633016     0.13200
N1194       N  0.88105684  0.64216522  0.54438952    -0.82500
H1195       H  0.82950223  0.69660086  0.52681501     0.18000
N1196       N  0.83330173  0.70289408  0.43938175    -0.81100
H1197       H  0.89223423  0.63367243  0.52463707     0.33700
H1198       H  0.89795941  0.65890961  0.56474963     0.38200
H1199       H  0.82267630  0.71203970  0.45901382     0.33600
H1200       H  0.85192103  0.72158202  0.42390613     0.30300
H1201       H  0.92882019  0.72326252  0.36391671     0.33600
H1202       H  0.90916818  0.72716211  0.40564429     0.30300
H1203       H  0.80048491  0.60405986  0.30141143     0.38200
H1204       H  0.78140066  0.61032909  0.34135286     0.33700
C1205       C  0.73802143  0.61429450  0.62925869    -0.20100
C1206       C  0.71664103  0.58276699  0.63705734     0.36100
C1207       C  0.68628224  0.57006176  0.62113573    -0.26000
C1208       C  0.67725068  0.58770652  0.59595135     0.02600
C1209       C  0.69897162  0.61875597  0.58661146     0.27400
C1210       C  0.72881640  0.63182391  0.60407977    -0.25200
N1211       N  0.72540329  0.56392713  0.66187537    -0.82600
H1212       H  0.66949823  0.54626699  0.62853538     0.13200
C1213       C  0.64471484  0.57382659  0.58095788     0.02600
N1214       N  0.69070534  0.63681398  0.55902412    -0.81100
H1215       H  0.74525361  0.65579312  0.59707706     0.18000
C1216       C  0.62810928  0.58868303  0.59146858    -0.26000
C1217       C  0.59714022  0.57628347  0.57901837     0.36100
C1218       C  0.58214957  0.54801439  0.55574926    -0.20000
C1219       C  0.59886359  0.53315576  0.54522798    -0.25200
C1220       C  0.63006020  0.54592730  0.55715864     0.27400
H1221       H  0.63926521  0.60986869  0.61032901     0.13200
N1222       N  0.58079304  0.59200398  0.59101356    -0.82500
H1223       H  0.58765987  0.51164608  0.52714519     0.18000
N1224       N  0.64698766  0.53084662  0.54488311    -0.81100
H1225       H  0.59547245  0.61288594  0.60673993     0.33700
H1226       H  0.56412703  0.57823827  0.61409722     0.38200
H1227       H  0.63285873  0.51053551  0.52757294     0.33600
H1228       H  0.66450186  0.54549250  0.52332196     0.30300
H1229       H  0.70929652  0.65925316  0.55547795     0.33600
H1230       H  0.68596036  0.62686952  0.52775473     0.30300
H1231       H  0.74060067  0.56042988  0.64243668     0.38200
H1232       H  0.70630074  0.54202056  0.66722109     0.33700
C1233       C  0.91934593  0.70552885  0.70881328    -0.20100
C1234       C  0.92953898  0.73039852  0.73851404     0.36100
C1235       C  0.96028981  0.74549423  0.75284637    -0.26000
C1236       C  0.98109046  0.73646780  0.73784176     0.02600
C1237       C  0.97095197  0.71170566  0.70801351     0.27400
C1238       C  0.93998902  0.69614097  0.69432517    -0.25200
N1239       N  0.90851868  0.73985430  0.75465147    -0.82600
H1240       H  0.96808258  0.76428207  0.77615966     0.13200
C1241       C  0.01341392  0.75329244  0.75379643     0.02600
N1242       N  0.99226982  0.70288063  0.69119709    -0.81100
H1243       H  0.93210836  0.67710286  0.67142788     0.18000
C1244       C  0.02568206  0.73704672  0.77530151    -0.26000
C1245       C  0.05604901  0.75233959  0.79157666     0.36100
C1246       C  0.07441792  0.78470904  0.78656700    -0.20000
C1247       C  0.06186734  0.80087949  0.76536904    -0.25200
C1248       C  0.03176662  0.78547640  0.74838779     0.27400
H1249       H  0.01135280  0.71234362  0.77974999     0.13200
N1250       N  0.06807074  0.73512163  0.81344457    -0.82500
H1251       H  0.07591719  0.82559611  0.76085605     0.18000
N1252       N  0.01990662  0.80227478  0.72494904    -0.81100
H1253       H  0.05178098  0.71156391  0.81356927     0.33700
H1254       H  0.07190820  0.74217058  0.84626727     0.38200
H1255       H  0.03631224  0.82578320  0.72380783     0.33600
H1256       H  0.01603746  0.79441217  0.69250214     0.30300
H1257       H  0.98113716  0.68427830  0.66956067     0.33600
H1258       H  0.00889833  0.72140817  0.67281401     0.30300
H1259       H  0.89166750  0.72168632  0.77332098     0.38200
H1260       H  0.91980867  0.75870188  0.77584380     0.33700
loop_ 
_geom_bond_atom_site_label_1 
_geom_bond_atom_site_label_2 
_geom_bond_distance 
_geom_bond_site_symmetry_2 
_ccdc_geom_bond_type 
O1           Cu9   2.022       .  S
O1           C11   1.280       .  A
O2           Cu9   2.021       .  S
O2           C12   1.280       .  A
O3           Cu9   2.005       .  S
O3           C13   1.277       .  A
O4           Cu9   2.014       .  S
O4           C14   1.278       .  A
O5          Cu10   1.997       .  S
O5           C14   1.277       .  A
O6          Cu10   1.994       .  S
O6           C13   1.276       .  A
O7          Cu10   2.008       .  S
O7           C12   1.278       .  A
O8          Cu10   2.007       .  S
O8           C11   1.277       .  A
Cu9         Cu10   2.369       .  S
C11        C1149   1.494       .  S
C12        C1190   1.487       .  S
C13        C1233   1.473       .  S
C14        C1205   1.483       .  S
O15         Cu23   2.009       .  S
O15          C25   1.279       .  A
O16         Cu23   2.009       .  S
O16          C26   1.279       .  A
O17         Cu23   2.011       .  S
O17          C27   1.278       .  A
O18         Cu23   2.017       .  S
O18          C28   1.278       .  A
O19         Cu24   2.020       .  S
O19          C28   1.280       .  A
O20         Cu24   2.014       .  S
O20          C27   1.279       .  A
O21         Cu24   2.008       .  S
O21          C26   1.277       .  A
O22         Cu24   2.010       .  S
O22          C25   1.277       .  A
Cu23        Cu24   2.366       .  S
C25        C1121   1.490       .  S
C26        C1246   1.484       .  S
C27        C1093   1.485       .  S
C28        C1065   1.498       .  S
O29         Cu37   2.005   1_554  S
O29          C39   1.278       .  A
O30         Cu37   2.005       .  S
O30          C40   1.277   1_545  A
O31         Cu37   2.012   1_554  S
O31          C41   1.279       .  A
O32         Cu37   2.016       .  S
O32          C42   1.279       .  A
O33         Cu38   2.011       .  S
O33          C42   1.278   1_565  A
O34         Cu38   2.011   1_554  S
O34          C41   1.278   1_565  A
O35         Cu38   2.015       .  S
O35          C40   1.279       .  A
O36         Cu38   2.007   1_544  S
O36          C39   1.277       .  A
Cu37        Cu38   2.369   1_545  S
C39        C1037   1.480       .  S
C40        C1134   1.486       .  S
C41        C1009   1.493       .  S
C42         C981   1.481       .  S
O43         Cu51   2.013       .  S
O43          C53   1.279       .  A
O44         Cu51   2.021       .  S
O44          C54   1.279       .  A
O45         Cu51   2.014       .  S
O45          C55   1.279       .  A
O46         Cu51   2.015       .  S
O46          C56   1.278       .  A
O47         Cu52   2.000       .  S
O47          C56   1.277       .  A
O48         Cu52   2.003       .  S
O48          C55   1.278       .  A
O49         Cu52   2.019       .  S
O49          C54   1.280       .  A
O50         Cu52   2.015       .  S
O50          C53   1.278       .  A
Cu51        Cu52   2.366       .  S
C53         C882   1.495       .  S
C54         C897   1.496       .  S
C55         C953   1.486       .  S
C56         C925   1.479       .  S
O57         Cu65   2.010       .  S
O57          C67   1.278       .  A
O58         Cu65   2.012       .  S
O58          C68   1.278       .  A
O59         Cu65   2.006       .  S
O59          C69   1.278       .  A
O60         Cu65   2.003       .  S
O60          C70   1.277       .  A
O61         Cu66   2.002       .  S
O61          C70   1.277       .  A
O62         Cu66   1.999       .  S
O62          C69   1.277       .  A
O63         Cu66   2.008       .  S
O63          C68   1.279       .  A
O64         Cu66   2.007       .  S
O64          C67   1.278       .  A
Cu65        Cu66   2.372       .  S
C67         C854   1.478       .  S
C68         C826   1.487       .  S
C69         C938   1.475       .  S
C70        C1050   1.475       .  S
O71         Cu79   2.003       .  S
O71          C81   1.277       .  A
O72         Cu79   2.005       .  S
O72          C82   1.277       .  A
O73         Cu79   2.013       .  S
O73          C83   1.279       .  A
O74         Cu79   2.011       .  S
O74          C84   1.278       .  A
O75         Cu80   2.008       .  S
O75          C84   1.278       .  A
O76         Cu80   2.004       .  S
O76          C83   1.278       .  A
O77         Cu80   2.020       .  S
O77          C82   1.280       .  A
O78         Cu80   2.017       .  S
O78          C81   1.279       .  A
Cu79        Cu80   2.366       .  S
C81        C1218   1.487       .  S
C82         C966   1.486       .  S
C83         C770   1.488       .  S
C84         C798   1.492       .  S
O85         Cu93   2.025       .  S
O85          C95   1.280       .  A
O86         Cu93   2.016       .  S
O86          C96   1.280       .  A
O87         Cu93   2.010       .  S
O87          C97   1.278       .  A
O88         Cu93   2.010       .  S
O88          C98   1.278       .  A
O89         Cu94   2.006       .  S
O89          C98   1.278       .  A
O90         Cu94   2.002       .  S
O90          C97   1.277       .  A
O91         Cu94   2.015       .  S
O91          C96   1.278       .  A
O92         Cu94   2.010       .  S
O92          C95   1.278       .  A
Cu93        Cu94   2.367       .  S
C95         C910   1.498       .  S
C96         C869   1.489       .  S
C97         C714   1.485       .  S
C98         C742   1.479       .  S
O99        Cu107   2.020       .  S
O99         C109   1.279       .  A
O100       Cu107   2.020       .  S
O100        C110   1.280       .  A
O101       Cu107   2.010       .  S
O101        C111   1.278       .  A
O102       Cu107   2.002       .  S
O102        C112   1.277       .  A
O103       Cu108   2.010       .  S
O103        C112   1.278       .  A
O104       Cu108   2.004       .  S
O104        C111   1.279       .  A
O105       Cu108   1.998       .  S
O105        C110   1.276       .  A
O106       Cu108   1.995       .  S
O106        C109   1.275       .  A
Cu107      Cu108   2.371       .  S
C109        C729   1.470       .  S
C110        C686   1.487       .  S
C111        C617   1.488       .  S
C112        C658   1.478       .  S
O113       Cu121   2.019   1_554  S
O113        C123   1.280   1_455  A
O114       Cu121   2.013       .  S
O114        C124   1.278   1_455  A
O115       Cu121   2.002   1_654  S
O115        C125   1.277       .  A
O116       Cu121   2.013       .  S
O116        C126   1.279       .  A
O117       Cu122   1.998       .  S
O117        C126   1.276   1_655  A
O118       Cu122   1.992   1_554  S
O118        C125   1.276       .  A
O119       Cu122   2.007       .  S
O119        C124   1.278       .  A
O120       Cu122   2.013   1_554  S
O120        C123   1.278       .  A
Cu121      Cu122   2.369   1_455  S
C123        C561   1.493       .  S
C124        C546   1.489       .  S
C125        C589   1.471       .  S
C126        C701   1.484       .  S
O127       Cu135   2.037       .  S
O127        C137   1.282       .  A
O128       Cu135   2.033       .  S
O128        C138   1.281       .  A
O129       Cu135   2.008       .  S
O129        C139   1.277       .  A
O130       Cu135   2.009       .  S
O130        C140   1.278       .  A
O131       Cu136   2.000       .  S
O131        C140   1.276       .  A
O132       Cu136   2.000       .  S
O132        C139   1.277       .  A
O133       Cu136   2.004       .  S
O133        C138   1.277       .  A
O134       Cu136   2.012       .  S
O134        C137   1.277       .  A
Cu135      Cu136   2.362       .  S
C137        C421   1.504       .  S
C138        C462   1.498       .  S
C139        C518   1.485       .  S
C140        C477   1.486       .  S
O141       Cu149   2.007       .  S
O141        C151   1.279       .  A
O142       Cu149   2.001       .  S
O142        C152   1.277       .  A
O143       Cu149   2.001       .  S
O143        C153   1.276       .  A
O144       Cu149   1.999       .  S
O144        C154   1.275       .  A
O145       Cu150   2.028       .  S
O145        C154   1.282       .  A
O146       Cu150   2.032       .  S
O146        C153   1.281       .  A
O147       Cu150   1.997       .  S
O147        C152   1.276       .  A
O148       Cu150   2.004       .  S
O148        C151   1.276       .  A
Cu149      Cu150   2.365       .  S
C151        C490   1.486       .  S
C152        C602   1.471       .  S
C153       C1177   1.497       .  S
C154       C1162   1.496       .  S
O155       Cu163   2.006       .  S
O155        C165   1.278       .  A
O156       Cu163   2.005       .  S
O156        C166   1.278   1_565  A
O157       Cu163   2.011       .  S
O157        C167   1.279   1_565  A
O158       Cu163   2.009       .  S
O158        C168   1.278       .  A
O159       Cu164   2.012       .  S
O159        C168   1.279   1_545  A
O160       Cu164   2.017       .  S
O160        C167   1.279       .  A
O161       Cu164   2.009       .  S
O161        C166   1.278       .  A
O162       Cu164   2.009       .  S
O162        C165   1.277   1_545  A
Cu163      Cu164   2.368   1_565  S
C165        C505   1.479       .  S
C166        C673   1.481       .  S
C167       C1022   1.493       .  S
C168        C994   1.491       .  S
O169       Cu177   2.009       .  S
O169        C179   1.279       .  A
O170       Cu177   2.009       .  S
O170        C180   1.278       .  A
O171       Cu177   2.004       .  S
O171        C181   1.276       .  A
O172       Cu177   2.009       .  S
O172        C182   1.278       .  A
O173       Cu178   2.019       .  S
O173        C182   1.279       .  A
O174       Cu178   2.015       .  S
O174        C181   1.279       .  A
O175       Cu178   2.003       .  S
O175        C180   1.278       .  A
O176       Cu178   1.999       .  S
O176        C179   1.276       .  A
Cu177      Cu178   2.368       .  S
C179        C630   1.488       .  S
C180        C645   1.482       .  S
C181        C393   1.477       .  S
C182        C365   1.490       .  S
O183       Cu191   2.004       .  S
O183        C193   1.279       .  A
O184       Cu191   2.008       .  S
O184        C194   1.277       .  A
O185       Cu191   2.003       .  S
O185        C195   1.276       .  A
O186       Cu191   2.006   1_556  S
O186        C196   1.278       .  A
O187       Cu192   2.008   1_556  S
O187        C196   1.278       .  A
O188       Cu192   2.014       .  S
O188        C195   1.280       .  A
O189       Cu192   2.004       .  S
O189        C194   1.277       .  A
O190       Cu192   2.009       .  S
O190        C193   1.277       .  A
Cu191      Cu192   2.370       .  S
C193        C406   1.482       .  S
C194        C337   1.472   1_554  S
C195        C785   1.491       .  S
C196        C757   1.484       .  S
O197       Cu205   2.019       .  S
O197        C207   1.280       .  A
O198       Cu205   2.016       .  S
O198        C208   1.279       .  A
O199       Cu205   2.010       .  S
O199        C209   1.278       .  A
O200       Cu205   2.017       .  S
O200        C210   1.279       .  A
O201       Cu206   2.004       .  S
O201        C210   1.278       .  A
O202       Cu206   2.003       .  S
O202        C209   1.276       .  A
O203       Cu206   2.007       .  S
O203        C208   1.278       .  A
O204       Cu206   2.014       .  S
O204        C207   1.278       .  A
Cu205      Cu206   2.368       .  S
C207       C1078   1.492       .  S
C208       C1106   1.485       .  S
C209        C309   1.482       .  S
C210        C378   1.487       .  S
O211       Cu219   1.987       .  S
O211        C221   1.276       .  A
O212       Cu219   1.991   1_655  S
O212        C222   1.277       .  A
O213       Cu219   2.008       .  S
O213        C223   1.278   1_455  A
O214       Cu219   2.009       .  S
O214        C224   1.278   1_455  A
O215       Cu220   2.019       .  S
O215        C224   1.279       .  A
O216       Cu220   2.022       .  S
O216        C223   1.280       .  A
O217       Cu220   2.013       .  S
O217        C222   1.278       .  A
O218       Cu220   2.006       .  S
O218        C221   1.278   1_655  A
Cu219      Cu220   2.366   1_455  S
C221        C322   1.475       .  S
C222        C281   1.488       .  S
C223        C574   1.495       .  S
C224        C533   1.493       .  S
O225       Cu233   2.002       .  S
O225        C235   1.278       .  A
O226       Cu233   1.999       .  S
O226        C236   1.276       .  A
O227       Cu233   2.000       .  S
O227        C237   1.276       .  A
O228       Cu233   2.001       .  S
O228        C238   1.277       .  A
O229       Cu234   2.007       .  S
O229        C238   1.278       .  A
O230       Cu234   2.003       .  S
O230        C237   1.277       .  A
O231       Cu234   2.021       .  S
O231        C236   1.280       .  A
O232       Cu234   2.015       .  S
O232        C235   1.278       .  A
Cu233      Cu234   2.367       .  S
C235        C841   1.492       .  S
C236        C813   1.490       .  S
C237        C294   1.473       .  S
C238        C253   1.488       .  S
O239       Cu247   2.025       .  S
O239        C249   1.279       .  A
O240       Cu247   2.039       .  S
O240        C250   1.283       .  A
O241       Cu247   2.008       .  S
O241        C251   1.277       .  A
O242       Cu247   2.002       .  S
O242        C252   1.277       .  A
O243       Cu248   2.006       .  S
O243        C252   1.277       .  A
O244       Cu248   2.008       .  S
O244        C251   1.278       .  A
O245       Cu248   2.009       .  S
O245        C250   1.277       .  A
O246       Cu248   2.013       .  S
O246        C249   1.279       .  A
Cu247      Cu248   2.368       .  S
C249        C449   1.497       .  S
C250        C434   1.503       .  S
C251        C350   1.477       .  S
C252        C266   1.472       .  S
C253        C254   1.417       .  A
C253        C258   1.407       .  A
C254        C255   1.404       .  A
C254        N259   1.438       .  S
C255        C256   1.402       .  A
C255        H260   1.084       .  S
C256        C261   1.487   1_545  S
C256        C257   1.410       .  A
C257        C258   1.405       .  A
C257        N262   1.438       .  S
C258        H263   1.083       .  S
N259        H279   1.046       .  S
N259        H280   1.045       .  S
C261        C264   1.404       .  A
C261        C268   1.413       .  A
N262        H277   1.046       .  S
N262        H278   1.045       .  S
C264        C265   1.405       .  A
C264        H269   1.083       .  S
C265        C266   1.411       .  A
C265        N270   1.438       .  S
C266        C267   1.401       .  A
C267        C268   1.404       .  A
C267        H271   1.084       .  S
C268        N272   1.438       .  S
N270        H273   1.046       .  S
N270        H274   1.046       .  S
N272        H275   1.046       .  S
N272        H276   1.046   1_565  S
C281        C282   1.418       .  A
C281        C286   1.407       .  A
C282        C283   1.407       .  A
C282        N287   1.438       .  S
C283        C284   1.404       .  A
C283        H288   1.084       .  S
C284        C289   1.485       .  S
C284        C285   1.409       .  A
C285        C286   1.400       .  A
C285        N290   1.439       .  S
C286        H291   1.083       .  S
N287        H307   1.046       .  S
N287        H308   1.046       .  S
C289        C292   1.403       .  A
C289        C296   1.413       .  A
N290        H305   1.045       .  S
N290        H306   1.046       .  S
C292        C293   1.402       .  A
C292        H297   1.084       .  S
C293        C294   1.412       .  A
C293        N298   1.439       .  S
C294        C295   1.402       .  A
C295        C296   1.405       .  A
C295        H299   1.084       .  S
C296        N300   1.438       .  S
N298        H301   1.046       .  S
N298        H302   1.046       .  S
N300        H303   1.046       .  S
N300        H304   1.045       .  S
C309        C310   1.416       .  A
C309        C314   1.405       .  A
C310        C311   1.403       .  A
C310        N315   1.438       .  S
C311        C312   1.401       .  A
C311        H316   1.084       .  S
C312        C317   1.482       .  S
C312        C313   1.410       .  A
C313        C314   1.405       .  A
C313        N318   1.438       .  S
C314        H319   1.084       .  S
N315        H335   1.045       .  S
N315        H336   1.046       .  S
C317        C320   1.405       .  A
C317        C324   1.410       .  A
N318        H333   1.046       .  S
N318        H334   1.046       .  S
C320        C321   1.405       .  A
C320        H325   1.084       .  S
C321        C322   1.411       .  A
C321        N326   1.438       .  S
C322        C323   1.404       .  A
C323        C324   1.400       .  A
C323        H327   1.084       .  S
C324        N328   1.438       .  S
N326        H329   1.046   1_455  S
N326        H330   1.046       .  S
N328        H331   1.046       .  S
N328        H332   1.045       .  S
C337        C338   1.411       .  A
C337        C342   1.403   1_556  A
C338        C339   1.402       .  A
C338        N343   1.439       .  S
C339        C340   1.399       .  A
C339        H344   1.084       .  S
C340        C345   1.476       .  S
C340        C341   1.410       .  A
C341        C342   1.408   1_556  A
C341        N346   1.438   1_556  S
C342        H347   1.084       .  S
N343        H363   1.046       .  S
N343        H364   1.046       .  S
C345        C348   1.400       .  A
C345        C352   1.409       .  A
N346        H361   1.046       .  S
N346        H362   1.044   1_554  S
C348        C349   1.406       .  A
C348        H353   1.084       .  S
C349        C350   1.415       .  A
C349        N354   1.438       .  S
C350        C351   1.402       .  A
C351        C352   1.404       .  A
C351        H355   1.084       .  S
C352        N356   1.438       .  S
N354        H357   1.046       .  S
N354        H358   1.046       .  S
N356        H359   1.046       .  S
N356        H360   1.045       .  S
C365        C366   1.417       .  A
C365        C370   1.407       .  A
C366        C367   1.408       .  A
C366        N371   1.438       .  S
C367        C368   1.403       .  A
C367        H372   1.084       .  S
C368        C373   1.488   1_545  S
C368        C369   1.409       .  A
C369        C370   1.406       .  A
C369        N374   1.438       .  S
C370        H375   1.083       .  S
N371        H391   1.045       .  S
N371        H392   1.045       .  S
C373        C376   1.404       .  A
C373        C380   1.409       .  A
N374        H389   1.045       .  S
N374        H390   1.046   1_545  S
C376        C377   1.409       .  A
C376        H381   1.084       .  S
C377        C378   1.415       .  A
C377        N382   1.438       .  S
C378        C379   1.407       .  A
C379        C380   1.405       .  A
C379        H383   1.083       .  S
C380        N384   1.438       .  S
N382        H385   1.046       .  S
N382        H386   1.046       .  S
N384        H387   1.046       .  S
N384        H388   1.046       .  S
C393        C394   1.415       .  A
C393        C398   1.405       .  A
C394        C395   1.398       .  A
C394        N399   1.433       .  S
C395        C396   1.402       .  A
C395        H400   1.084       .  S
C396        C401   1.481       .  S
C396        C397   1.409       .  A
C397        C398   1.407       .  A
C397        N402   1.438       .  S
C398        H403   1.084       .  S
N399        H419   1.045       .  S
N399        H420   1.045       .  S
C401        C404   1.403       .  A
C401        C408   1.407       .  A
N402        H417   1.045       .  S
N402        H418   1.046       .  S
C404        C405   1.409       .  A
C404        H409   1.084       .  S
C405        C406   1.416       .  A
C405        N410   1.438       .  S
C406        C407   1.404       .  A
C407        C408   1.401       .  A
C407        H411   1.083       .  S
C408        N412   1.438       .  S
N410        H413   1.046       .  S
N410        H414   1.046   1_554  S
N412        H415   1.045       .  S
N412        H416   1.046       .  S
C421        C422   1.423       .  A
C421        C426   1.410       .  A
C422        C423   1.410       .  A
C422        N427   1.438       .  S
C423        C424   1.401       .  A
C423        H428   1.084       .  S
C424        C429   1.496       .  S
C424        C425   1.411       .  A
C425        C426   1.411       .  A
C425        N430   1.438       .  S
C426        H431   1.083       .  S
N427        H447   1.045       .  S
N427        H448   1.046       .  S
C429        C432   1.402       .  A
C429        C436   1.411       .  A
N430        H445   1.046       .  S
N430        H446   1.046       .  S
C432        C433   1.411       .  A
C432        H437   1.084       .  S
C433        C434   1.422       .  A
C433        N438   1.438       .  S
C434        C435   1.409       .  A
C435        C436   1.410       .  A
C435        H439   1.083       .  S
C436        N440   1.438       .  S
N438        H441   1.046       .  S
N438        H442   1.046       .  S
N440        H443   1.046       .  S
N440        H444   1.046       .  S
C449        C450   1.420       .  A
C449        C454   1.409       .  A
C450        C451   1.412   1_556  A
C450        N455   1.437       .  S
C451        C452   1.402       .  A
C451        H456   1.084       .  S
C452        C457   1.484       .  S
C452        C453   1.407       .  A
C453        C454   1.405   1_554  A
C453        N458   1.438       .  S
C454        H459   1.083       .  S
N455        H475   1.045       .  S
N455        H476   1.046       .  S
C457        C460   1.398       .  A
C457        C464   1.409       .  A
N458        H473   1.046       .  S
N458        H474   1.045       .  S
C460        C461   1.405       .  A
C460        H465   1.084       .  S
C461        C462   1.421       .  A
C461        N466   1.438       .  S
C462        C463   1.410       .  A
C463        C464   1.412       .  A
C463        H467   1.083       .  S
C464        N468   1.437       .  S
N466        H469   1.046       .  S
N466        H470   1.045       .  S
N468        H471   1.046       .  S
N468        H472   1.045       .  S
C477        C478   1.418       .  A
C477        C482   1.407       .  A
C478        C479   1.403       .  A
C478        N483   1.438       .  S
C479        C480   1.400       .  A
C479        H484   1.084       .  S
C480        C485   1.484       .  S
C480        C481   1.410       .  A
C481        C482   1.406       .  A
C481        N486   1.438       .  S
C482        H487   1.083       .  S
N483        H503   1.045       .  S
N483        H504   1.046       .  S
C485        C488   1.402       .  A
C485        C492   1.409       .  A
N486        H501   1.046       .  S
N486        H502   1.046       .  S
C488        C489   1.407       .  A
C488        H493   1.084       .  S
C489        C490   1.418       .  A
C489        N494   1.438       .  S
C490        C491   1.405       .  A
C491        C492   1.402       .  A
C491        H495   1.083       .  S
C492        N496   1.438       .  S
N494        H497   1.046       .  S
N494        H498   1.045       .  S
N496        H499   1.046       .  S
N496        H500   1.046       .  S
C505        C506   1.414       .  A
C505        C510   1.402       .  A
C506        C507   1.409       .  A
C506        N511   1.438       .  S
C507        C508   1.405       .  A
C507        H512   1.084       .  S
C508        C513   1.486       .  S
C508        C509   1.411       .  A
C509        C510   1.401       .  A
C509        N514   1.439       .  S
C510        H515   1.084       .  S
N511        H531   1.043   1_565  S
N511        H532   1.047   1_565  S
C513        C516   1.400       .  A
C513        C520   1.411       .  A
N514        H529   1.044       .  S
N514        H530   1.046       .  S
C516        C517   1.393       .  A
C516        H521   1.084       .  S
C517        C518   1.418       .  A
C517        N522   1.433       .  S
C518        C519   1.409       .  A
C519        C520   1.409       .  A
C519        H523   1.084       .  S
C520        N524   1.438       .  S
N522        H525   1.045       .  S
N522        H526   1.045       .  S
N524        H527   1.045       .  S
N524        H528   1.046       .  S
C533        C534   1.418       .  A
C533        C538   1.408   1_655  A
C534        C535   1.409       .  A
C534        N539   1.437       .  S
C535        C536   1.400   1_655  A
C535        H540   1.084       .  S
C536        C541   1.478   1_455  S
C536        C537   1.407       .  A
C537        C538   1.405       .  A
C537        N542   1.438       .  S
C538        H543   1.083       .  S
N539        H559   1.045       .  S
N539        H560   1.046       .  S
C541        C544   1.398       .  A
C541        C548   1.407   1_655  A
N542        H557   1.046       .  S
N542        H558   1.045       .  S
C544        C545   1.403       .  A
C544        H549   1.084       .  S
C545        C546   1.418       .  A
C545        N550   1.438       .  S
C546        C547   1.410   1_655  A
C547        C548   1.409       .  A
C547        H551   1.083       .  S
C548        N552   1.438       .  S
N550        H553   1.045       .  S
N550        H554   1.046       .  S
N552        H555   1.045       .  S
N552        H556   1.045       .  S
C561        C562   1.418       .  A
C561        C566   1.407   1_655  A
C562        C563   1.410       .  A
C562        N567   1.437       .  S
C563        C564   1.403       .  A
C563        H568   1.084       .  S
C564        C569   1.489       .  S
C564        C565   1.410   1_655  A
C565        C566   1.406       .  A
C565        N570   1.438       .  S
C566        H571   1.083       .  S
N567        H587   1.046       .  S
N567        H588   1.046       .  S
C569        C572   1.400   1_655  A
C569        C576   1.410       .  A
N570        H585   1.046       .  S
N570        H586   1.046       .  S
C572        C573   1.407       .  A
C572        H577   1.084       .  S
C573        C574   1.420   1_455  A
C573        N578   1.438       .  S
C574        C575   1.409       .  A
C575        C576   1.409       .  A
C575        H579   1.083       .  S
C576        N580   1.438       .  S
N578        H581   1.046       .  S
N578        H582   1.046       .  S
N580        H583   1.046       .  S
N580        H584   1.046       .  S
C589        C590   1.412       .  A
C589        C594   1.403       .  A
C590        C591   1.405       .  A
C590        N595   1.438   1_554  S
C591        C592   1.401       .  A
C591        H596   1.084       .  S
C592        C597   1.471       .  S
C592        C593   1.406       .  A
C593        C594   1.399       .  A
C593        N598   1.438       .  S
C594        H599   1.084       .  S
N595        H615   1.046       .  S
N595        H616   1.046       .  S
C597        C600   1.398       .  A
C597        C604   1.408       .  A
N598        H613   1.046       .  S
N598        H614   1.046       .  S
C600        C601   1.400       .  A
C600        H605   1.084       .  S
C601        C602   1.413       .  A
C601        N606   1.439       .  S
C602        C603   1.404       .  A
C603        C604   1.405       .  A
C603        H607   1.084       .  S
C604        N608   1.438       .  S
N606        H609   1.046       .  S
N606        H610   1.045       .  S
N608        H611   1.046       .  S
N608        H612   1.046       .  S
C617        C618   1.414       .  A
C617        C622   1.406       .  A
C618        C619   1.404       .  A
C618        N623   1.432       .  S
C619        C620   1.403       .  A
C619        H624   1.084       .  S
C620        C625   1.487       .  S
C620        C621   1.411       .  A
C621        C622   1.403       .  A
C621        N626   1.439       .  S
C622        H627   1.083       .  S
N623        H643   1.046       .  S
N623        H644   1.045       .  S
C625        C628   1.402       .  A
C625        C632   1.410       .  A
N626        H641   1.045       .  S
N626        H642   1.046       .  S
C628        C629   1.404   1_556  A
C628        H633   1.084       .  S
C629        C630   1.418       .  A
C629        N634   1.438       .  S
C630        C631   1.407       .  A
C631        C632   1.405   1_554  A
C631        H635   1.083       .  S
C632        N636   1.438       .  S
N634        H637   1.046       .  S
N634        H638   1.045       .  S
N636        H639   1.045       .  S
N636        H640   1.046       .  S
C645        C646   1.414       .  A
C645        C650   1.405       .  A
C646        C647   1.407       .  A
C646        N651   1.437       .  S
C647        C648   1.401       .  A
C647        H652   1.084       .  S
C648        C653   1.479       .  S
C648        C649   1.408       .  A
C649        C650   1.402       .  A
C649        N654   1.438       .  S
C650        H655   1.084       .  S
N651        H671   1.046       .  S
N651        H672   1.046       .  S
C653        C656   1.401       .  A
C653        C660   1.408       .  A
N654        H669   1.046       .  S
N654        H670   1.046       .  S
C656        C657   1.403       .  A
C656        H661   1.084       .  S
C657        C658   1.414       .  A
C657        N662   1.439       .  S
C658        C659   1.405       .  A
C659        C660   1.407       .  A
C659        H663   1.084       .  S
C660        N664   1.437       .  S
N662        H665   1.045       .  S
N662        H666   1.046       .  S
N664        H667   1.046       .  S
N664        H668   1.045       .  S
C673        C674   1.415       .  A
C673        C678   1.404       .  A
C674        C675   1.405       .  A
C674        N679   1.438   1_545  S
C675        C676   1.401       .  A
C675        H680   1.084       .  S
C676        C681   1.484       .  S
C676        C677   1.411       .  A
C677        C678   1.406       .  A
C677        N682   1.438       .  S
C678        H683   1.084       .  S
N679        H699   1.046       .  S
N679        H700   1.045       .  S
C681        C684   1.401       .  A
C681        C688   1.411       .  A
N682        H697   1.045       .  S
N682        H698   1.046       .  S
C684        C685   1.402       .  A
C684        H689   1.084       .  S
C685        C686   1.414       .  A
C685        N690   1.433       .  S
C686        C687   1.407       .  A
C687        C688   1.408       .  A
C687        H691   1.083       .  S
C688        N692   1.438       .  S
N690        H693   1.045       .  S
N690        H694   1.046       .  S
N692        H695   1.046       .  S
N692        H696   1.045       .  S
C701        C702   1.417       .  A
C701        C706   1.404       .  A
C702        C703   1.405       .  A
C702        N707   1.439   1_455  S
C703        C704   1.401       .  A
C703        H708   1.084       .  S
C704        C709   1.484       .  S
C704        C705   1.411       .  A
C705        C706   1.405       .  A
C705        N710   1.438       .  S
C706        H711   1.083       .  S
N707        H727   1.046       .  S
N707        H728   1.046       .  S
C709        C712   1.402       .  A
C709        C716   1.410       .  A
N710        H725   1.045       .  S
N710        H726   1.046       .  S
C712        C713   1.405       .  A
C712        H717   1.084       .  S
C713        C714   1.414       .  A
C713        N718   1.438       .  S
C714        C715   1.407       .  A
C715        C716   1.405       .  A
C715        H719   1.083       .  S
C716        N720   1.438       .  S
N718        H721   1.045       .  S
N718        H722   1.046       .  S
N720        H723   1.046       .  S
N720        H724   1.045       .  S
C729        C730   1.413       .  A
C729        C734   1.401       .  A
C730        C731   1.395       .  A
C730        N735   1.433       .  S
C731        C732   1.401       .  A
C731        H736   1.084       .  S
C732        C737   1.481       .  S
C732        C733   1.413       .  A
C733        C734   1.409       .  A
C733        N738   1.437       .  S
C734        H739   1.084       .  S
N735        H755   1.045       .  S
N735        H756   1.045       .  S
C737        C740   1.401       .  A
C737        C744   1.410       .  A
N738        H753   1.045       .  S
N738        H754   1.046       .  S
C740        C741   1.406       .  A
C740        H745   1.084       .  S
C741        C742   1.414       .  A
C741        N746   1.438       .  S
C742        C743   1.403       .  A
C743        C744   1.405       .  A
C743        H747   1.084       .  S
C744        N748   1.438       .  S
N746        H749   1.045       .  S
N746        H750   1.046       .  S
N748        H751   1.046       .  S
N748        H752   1.046       .  S
C757        C758   1.416       .  A
C757        C762   1.406       .  A
C758        C759   1.407       .  A
C758        N763   1.438       .  S
C759        C760   1.400       .  A
C759        H764   1.084       .  S
C760        C765   1.477       .  S
C760        C761   1.407       .  A
C761        C762   1.403       .  A
C761        N766   1.438       .  S
C762        H767   1.083       .  S
N763        H783   1.046       .  S
N763        H784   1.046       .  S
C765        C768   1.399       .  A
C765        C772   1.406       .  A
N766        H781   1.046       .  S
N766        H782   1.045       .  S
C768        C769   1.404       .  A
C768        H773   1.084       .  S
C769        C770   1.417       .  A
C769        N774   1.437       .  S
C770        C771   1.409       .  A
C771        C772   1.406       .  A
C771        H775   1.083       .  S
C772        N776   1.437       .  S
N774        H777   1.046       .  S
N774        H778   1.044       .  S
N776        H779   1.046       .  S
N776        H780   1.045       .  S
C785        C786   1.420       .  A
C785        C790   1.407       .  A
C786        C787   1.408       .  A
C786        N791   1.438       .  S
C787        C788   1.400       .  A
C787        H792   1.084       .  S
C788        C793   1.481       .  S
C788        C789   1.407       .  A
C789        C790   1.403       .  A
C789        N794   1.438       .  S
C790        H795   1.083       .  S
N791        H811   1.046       .  S
N791        H812   1.046       .  S
C793        C796   1.400       .  A
C793        C800   1.407       .  A
N794        H809   1.045       .  S
N794        H810   1.046       .  S
C796        C797   1.406       .  A
C796        H801   1.084       .  S
C797        C798   1.419       .  A
C797        N802   1.438       .  S
C798        C799   1.409       .  A
C799        C800   1.405       .  A
C799        H803   1.083       .  S
C800        N804   1.438       .  S
N802        H805   1.046       .  S
N802        H806   1.046       .  S
N804        H807   1.046       .  S
N804        H808   1.046       .  S
C813        C814   1.419       .  A
C813        C818   1.407       .  A
C814        C815   1.404       .  A
C814        N819   1.439       .  S
C815        C816   1.402       .  A
C815        H820   1.084       .  S
C816        C821   1.488       .  S
C816        C817   1.410       .  A
C817        C818   1.408       .  A
C817        N822   1.437       .  S
C818        H823   1.083       .  S
N819        H839   1.046       .  S
N819        H840   1.045       .  S
C821        C824   1.404       .  A
C821        C828   1.410       .  A
N822        H837   1.045       .  S
N822        H838   1.046       .  S
C824        C825   1.409   1_556  A
C824        H829   1.084       .  S
C825        C826   1.416       .  A
C825        N830   1.438       .  S
C826        C827   1.406       .  A
C827        C828   1.404   1_554  A
C827        H831   1.083       .  S
C828        N832   1.438       .  S
N830        H833   1.046       .  S
N830        H834   1.046       .  S
N832        H835   1.045       .  S
N832        H836   1.046       .  S
C841        C842   1.419       .  A
C841        C846   1.410       .  A
C842        C843   1.407       .  A
C842        N847   1.438       .  S
C843        C844   1.400       .  A
C843        H848   1.084       .  S
C844        C849   1.478       .  S
C844        C845   1.404       .  A
C845        C846   1.404       .  A
C845        N850   1.438       .  S
C846        H851   1.083       .  S
N847        H867   1.046       .  S
N847        H868   1.046       .  S
C849        C852   1.402       .  A
C849        C856   1.407       .  A
N850        H865   1.045       .  S
N850        H866   1.046       .  S
C852        C853   1.407       .  A
C852        H857   1.084       .  S
C853        C854   1.412       .  A
C853        N858   1.437       .  S
C854        C855   1.405       .  A
C855        C856   1.403       .  A
C855        H859   1.084       .  S
C856        N860   1.438       .  S
N858        H861   1.046       .  S
N858        H862   1.046       .  S
N860        H863   1.045       .  S
N860        H864   1.046       .  S
C869        C870   1.417       .  A
C869        C874   1.406       .  A
C870        C871   1.410       .  A
C870        N875   1.437       .  S
C871        C872   1.402       .  A
C871        H876   1.084       .  S
C872        C877   1.484       .  S
C872        C873   1.408       .  A
C873        C874   1.405       .  A
C873        N878   1.438       .  S
C874        H879   1.083       .  S
N875        H895   1.045       .  S
N875        H896   1.046       .  S
C877        C880   1.400       .  A
C877        C884   1.407       .  A
N878        H893   1.045       .  S
N878        H894   1.046       .  S
C880        C881   1.408       .  A
C880        H885   1.084       .  S
C881        C882   1.420       .  A
C881        N886   1.438       .  S
C882        C883   1.409       .  A
C883        C884   1.407       .  A
C883        H887   1.083       .  S
C884        N888   1.438       .  S
N886        H889   1.046       .  S
N886        H890   1.046       .  S
N888        H891   1.045       .  S
N888        H892   1.046       .  S
C897        C898   1.419       .  A
C897        C902   1.409       .  A
C898        C899   1.411       .  A
C898        N903   1.437       .  S
C899        C900   1.401       .  A
C899        H904   1.084       .  S
C900        C905   1.485       .  S
C900        C901   1.408       .  A
C901        C902   1.407       .  A
C901        N906   1.438       .  S
C902        H907   1.083       .  S
N903        H923   1.045       .  S
N903        H924   1.046       .  S
C905        C908   1.399       .  A
C905        C912   1.408       .  A
N906        H921   1.046       .  S
N906        H922   1.045       .  S
C908        C909   1.407   1_554  A
C908        H913   1.084       .  S
C909        C910   1.421       .  A
C909        N914   1.438       .  S
C910        C911   1.411       .  A
C911        C912   1.411   1_556  A
C911        H915   1.083       .  S
C912        N916   1.438       .  S
N914        H917   1.045       .  S
N914        H918   1.046       .  S
N916        H919   1.046       .  S
N916        H920   1.044       .  S
C925        C926   1.414       .  A
C925        C930   1.406       .  A
C926        C927   1.402       .  A
C926        N931   1.438       .  S
C927        C928   1.398       .  A
C927        H932   1.084       .  S
C928        C933   1.475   1_455  S
C928        C929   1.408       .  A
C929        C930   1.407       .  A
C929        N934   1.437       .  S
C930        H935   1.084       .  S
N931        H951   1.046       .  S
N931        H952   1.046       .  S
C933        C936   1.401       .  A
C933        C940   1.407       .  A
N934        H949   1.046       .  S
N934        H950   1.046   1_455  S
C936        C937   1.405       .  A
C936        H941   1.084       .  S
C937        C938   1.411       .  A
C937        N942   1.438       .  S
C938        C939   1.405       .  A
C939        C940   1.403       .  A
C939        H943   1.084       .  S
C940        N944   1.438       .  S
N942        H945   1.045       .  S
N942        H946   1.046       .  S
N944        H947   1.046       .  S
N944        H948   1.046       .  S
C953        C954   1.413       .  A
C953        C958   1.407       .  A
C954        C955   1.406       .  A
C954        N959   1.437       .  S
C955        C956   1.404       .  A
C955        H960   1.084       .  S
C956        C961   1.489       .  S
C956        C957   1.411       .  A
C957        C958   1.406       .  A
C957        N962   1.438       .  S
C958        H963   1.084       .  S
N959        H979   1.046       .  S
N959        H980   1.046       .  S
C961        C964   1.402       .  A
C961        C968   1.411       .  A
N962        H977   1.046       .  S
N962        H978   1.045       .  S
C964        C965   1.405       .  A
C964        H969   1.084       .  S
C965        C966   1.416       .  A
C965        N970   1.438       .  S
C966        C967   1.405       .  A
C967        C968   1.408       .  A
C967        H971   1.084       .  S
C968        N972   1.438       .  S
N970        H973   1.046       .  S
N970        H974   1.045       .  S
N972        H975   1.046       .  S
N972        H976   1.046       .  S
C981        C982   1.413   1_545  A
C981        C986   1.404       .  A
C982        C983   1.408       .  A
C982        N987   1.437       .  S
C983        C984   1.402   1_565  A
C983        H988   1.084       .  S
C984        C989   1.482       .  S
C984        C985   1.409       .  A
C985        C986   1.405       .  A
C985        N990   1.438       .  S
C986        H991   1.084       .  S
N987       H1007   1.046   1_565  S
N987       H1008   1.046       .  S
C989        C992   1.400   1_545  A
C989        C996   1.407       .  A
N990       H1005   1.046       .  S
N990       H1006   1.045       .  S
C992        C993   1.406       .  A
C992        H997   1.084       .  S
C993        C994   1.419       .  A
C993        N998   1.438       .  S
C994        C995   1.409   1_565  A
C995        C996   1.407       .  A
C995        H999   1.083       .  S
C996       N1000   1.437       .  S
N998       H1001   1.046       .  S
N998       H1002   1.046       .  S
N1000      H1003   1.045       .  S
N1000      H1004   1.046       .  S
C1009      C1010   1.419   1_545  A
C1009      C1014   1.409       .  A
C1010      C1011   1.407       .  A
C1010      N1015   1.438       .  S
C1011      C1012   1.402   1_565  A
C1011      H1016   1.084       .  S
C1012      C1017   1.486       .  S
C1012      C1013   1.408       .  A
C1013      C1014   1.406       .  A
C1013      N1018   1.438       .  S
C1014      H1019   1.083       .  S
N1015      H1035   1.046       .  S
N1015      H1036   1.046       .  S
C1017      C1020   1.402       .  A
C1017      C1024   1.408   1_545  A
N1018      H1033   1.045       .  S
N1018      H1034   1.046       .  S
C1020      C1021   1.407       .  A
C1020      H1025   1.084       .  S
C1021      C1022   1.419       .  A
C1021      N1026   1.438       .  S
C1022      C1023   1.409   1_545  A
C1023      C1024   1.407       .  A
C1023      H1027   1.083       .  S
C1024      N1028   1.438       .  S
N1026      H1029   1.047       .  S
N1026      H1030   1.045       .  S
N1028      H1031   1.046       .  S
N1028      H1032   1.046       .  S
C1037      C1038   1.414       .  A
C1037      C1042   1.405       .  A
C1038      C1039   1.407       .  A
C1038      N1043   1.438   1_554  S
C1039      C1040   1.403       .  A
C1039      H1044   1.084       .  S
C1040      C1045   1.479       .  S
C1040      C1041   1.407       .  A
C1041      C1042   1.402       .  A
C1041      N1046   1.438       .  S
C1042      H1047   1.084       .  S
N1043      H1063   1.046       .  S
N1043      H1064   1.046       .  S
C1045      C1048   1.401       .  A
C1045      C1052   1.409       .  A
N1046      H1061   1.046       .  S
N1046      H1062   1.046       .  S
C1048      C1049   1.403       .  A
C1048      H1053   1.084       .  S
C1049      C1050   1.413       .  A
C1049      N1054   1.439       .  S
C1050      C1051   1.404       .  A
C1051      C1052   1.405       .  A
C1051      H1055   1.084       .  S
C1052      N1056   1.437       .  S
N1054      H1057   1.046       .  S
N1054      H1058   1.046       .  S
N1056      H1059   1.046       .  S
N1056      H1060   1.046       .  S
C1065      C1066   1.420       .  A
C1065      C1070   1.409       .  A
C1066      C1067   1.409       .  A
C1066      N1071   1.438       .  S
C1067      C1068   1.401       .  A
C1067      H1072   1.084       .  S
C1068      C1073   1.487       .  S
C1068      C1069   1.408       .  A
C1069      C1070   1.408       .  A
C1069      N1074   1.438       .  S
C1070      H1075   1.083       .  S
N1071      H1091   1.046       .  S
N1071      H1092   1.046       .  S
C1073      C1076   1.403       .  A
C1073      C1080   1.409       .  A
N1074      H1089   1.045       .  S
N1074      H1090   1.046       .  S
C1076      C1077   1.411       .  A
C1076      H1081   1.084       .  S
C1077      C1078   1.418       .  A
C1077      N1082   1.438       .  S
C1078      C1079   1.407       .  A
C1079      C1080   1.406       .  A
C1079      H1083   1.083       .  S
C1080      N1084   1.438       .  S
N1082      H1085   1.046       .  S
N1082      H1086   1.046       .  S
N1084      H1087   1.046       .  S
N1084      H1088   1.046       .  S
C1093      C1094   1.414       .  A
C1093      C1098   1.406       .  A
C1094      C1095   1.408   1_556  A
C1094      N1099   1.437       .  S
C1095      C1096   1.402       .  A
C1095      H1100   1.084       .  S
C1096      C1101   1.485       .  S
C1096      C1097   1.410       .  A
C1097      C1098   1.405   1_554  A
C1097      N1102   1.438       .  S
C1098      H1103   1.084       .  S
N1099      H1119   1.045       .  S
N1099      H1120   1.046       .  S
C1101      C1104   1.400       .  A
C1101      C1108   1.410       .  A
N1102      H1117   1.046       .  S
N1102      H1118   1.045       .  S
C1104      C1105   1.404       .  A
C1104      H1109   1.084       .  S
C1105      C1106   1.416       .  A
C1105      N1110   1.439       .  S
C1106      C1107   1.407       .  A
C1107      C1108   1.409       .  A
C1107      H1111   1.084       .  S
C1108      N1112   1.437       .  S
N1110      H1113   1.046       .  S
N1110      H1114   1.045       .  S
N1112      H1115   1.046       .  S
N1112      H1116   1.045       .  S
C1121      C1122   1.417       .  A
C1121      C1126   1.408       .  A
C1122      C1123   1.407       .  A
C1122      N1127   1.438       .  S
C1123      C1124   1.403       .  A
C1123      H1128   1.084       .  S
C1124      C1129   1.488       .  S
C1124      C1125   1.409       .  A
C1125      C1126   1.405       .  A
C1125      N1130   1.438       .  S
C1126      H1131   1.083       .  S
N1127      H1147   1.045       .  S
N1127      H1148   1.046       .  S
C1129      C1132   1.403       .  A
C1129      C1136   1.410       .  A
N1130      H1145   1.045       .  S
N1130      H1146   1.046       .  S
C1132      C1133   1.406       .  A
C1132      H1137   1.084       .  S
C1133      C1134   1.417       .  A
C1133      N1138   1.438   1_565  S
C1134      C1135   1.406       .  A
C1135      C1136   1.406       .  A
C1135      H1139   1.084       .  S
C1136      N1140   1.438       .  S
N1138      H1141   1.046       .  S
N1138      H1142   1.046       .  S
N1140      H1143   1.046       .  S
N1140      H1144   1.046       .  S
C1149      C1150   1.419       .  A
C1149      C1154   1.409       .  A
C1150      C1151   1.407       .  A
C1150      N1155   1.438       .  S
C1151      C1152   1.400       .  A
C1151      H1156   1.084       .  S
C1152      C1157   1.483       .  S
C1152      C1153   1.408       .  A
C1153      C1154   1.407       .  A
C1153      N1158   1.438       .  S
C1154      H1159   1.083       .  S
N1155      H1175   1.046       .  S
N1155      H1176   1.046       .  S
C1157      C1160   1.399       .  A
C1157      C1164   1.407       .  A
N1158      H1173   1.045       .  S
N1158      H1174   1.046       .  S
C1160      C1161   1.408   1_556  A
C1160      H1165   1.084       .  S
C1161      C1162   1.423       .  A
C1161      N1166   1.438       .  S
C1162      C1163   1.408       .  A
C1163      C1164   1.406   1_554  A
C1163      H1167   1.083       .  S
C1164      N1168   1.438       .  S
N1166      H1169   1.046       .  S
N1166      H1170   1.046       .  S
N1168      H1171   1.045       .  S
N1168      H1172   1.046       .  S
C1177      C1178   1.421       .  A
C1177      C1182   1.411       .  A
C1178      C1179   1.403       .  A
C1178      N1183   1.438       .  S
C1179      C1180   1.397       .  A
C1179      H1184   1.084       .  S
C1180      C1185   1.483       .  S
C1180      C1181   1.408       .  A
C1181      C1182   1.412       .  A
C1181      N1186   1.437       .  S
C1182      H1187   1.083       .  S
N1183      H1203   1.045       .  S
N1183      H1204   1.046       .  S
C1185      C1188   1.402       .  A
C1185      C1192   1.408       .  A
N1186      H1201   1.046       .  S
N1186      H1202   1.045       .  S
C1188      C1189   1.411       .  A
C1188      H1193   1.084       .  S
C1189      C1190   1.416       .  A
C1189      N1194   1.437       .  S
C1190      C1191   1.405       .  A
C1191      C1192   1.404       .  A
C1191      H1195   1.083       .  S
C1192      N1196   1.438       .  S
N1194      H1197   1.046       .  S
N1194      H1198   1.046       .  S
N1196      H1199   1.046       .  S
N1196      H1200   1.045       .  S
C1205      C1206   1.415       .  A
C1205      C1210   1.405       .  A
C1206      C1207   1.407       .  A
C1206      N1211   1.438       .  S
C1207      C1208   1.404       .  A
C1207      H1212   1.083       .  S
C1208      C1213   1.487       .  S
C1208      C1209   1.410       .  A
C1209      C1210   1.401       .  A
C1209      N1214   1.438       .  S
C1210      H1215   1.084       .  S
N1211      H1231   1.045       .  S
N1211      H1232   1.046       .  S
C1213      C1216   1.402       .  A
C1213      C1220   1.411       .  A
N1214      H1229   1.046       .  S
N1214      H1230   1.046       .  S
C1216      C1217   1.403       .  A
C1216      H1221   1.084       .  S
C1217      C1218   1.416       .  A
C1217      N1222   1.437       .  S
C1218      C1219   1.406       .  A
C1219      C1220   1.407       .  A
C1219      H1223   1.083       .  S
C1220      N1224   1.438       .  S
N1222      H1225   1.046       .  S
N1222      H1226   1.044       .  S
N1224      H1227   1.045       .  S
N1224      H1228   1.046       .  S
C1233      C1234   1.412       .  A
C1233      C1238   1.403       .  A
C1234      C1235   1.402       .  A
C1234      N1239   1.439       .  S
C1235      C1236   1.402       .  A
C1235      H1240   1.084       .  S
C1236      C1241   1.483   1_655  S
C1236      C1237   1.411       .  A
C1237      C1238   1.405       .  A
C1237      N1242   1.438       .  S
C1238      H1243   1.084       .  S
N1239      H1259   1.046       .  S
N1239      H1260   1.046       .  S
C1241      C1244   1.402       .  A
C1241      C1248   1.409       .  A
N1242      H1257   1.046       .  S
N1242      H1258   1.046   1_655  S
C1244      C1245   1.406       .  A
C1244      H1249   1.084       .  S
C1245      C1246   1.416       .  A
C1245      N1250   1.438       .  S
C1246      C1247   1.405       .  A
C1247      C1248   1.403       .  A
C1247      H1251   1.083       .  S
C1248      N1252   1.438       .  S
N1250      H1253   1.046       .  S
N1250      H1254   1.046       .  S
N1252      H1255   1.046       .  S
N1252      H1256   1.046       .  S
