geometry optimzed in LAMMPS
_audit_creation_date              2020-12-01 
_audit_creation_method            'lammps2cif' 
_symmetry_space_group_name_H-M    'P1' 
_symmetry_Int_Tables_number       1 
_symmetry_cell_setting            triclinic 
loop_ 
_symmetry_equiv_pos_as_xyz 
  x,y,z 
_cell_length_a                    52.13107839 
_cell_length_b                    52.28565025985011 
_cell_length_c                    32.20962945718183 
_cell_angle_alpha                 90.00120501070053 
_cell_angle_beta                  89.99948522147218 
_cell_angle_gamma                 120.35131822941274 
loop_ 
_atom_site_label 
_atom_site_type_symbol 
_atom_site_fract_x 
_atom_site_fract_y 
_atom_site_fract_z 
_atom_site_charge 
C1          C  0.26137560  0.50006716  0.78648352     0.80400
N2          N  0.24885003  0.50093315  0.75002139    -0.77900
C3          C  0.26139104  0.50008520  0.71356359     0.82800
N4          N  0.28642245  0.49824037  0.71364593    -0.77900
C5          C  0.29869440  0.49680575  0.75002854     0.82900
N6          N  0.28640795  0.49822342  0.78640821    -0.79600
C7          C  0.27180004  0.46648117  0.21358428     0.80400
N8          N  0.28433404  0.46562190  0.25004197    -0.77900
C9          C  0.27180248  0.46647822  0.28650376     0.82800
N10         N  0.24677056  0.46832349  0.28642786    -0.77900
C11         C  0.23449159  0.46975238  0.25004697     0.82900
N12         N  0.24676987  0.46832726  0.21366563    -0.79600
C13         C  0.24880099  0.22666416  0.28652455     0.80400
N14         N  0.23512455  0.21455086  0.25001998    -0.77900
C15         C  0.24879272  0.22667126  0.21351405     0.82800
N16         N  0.27652963  0.25092062  0.21357681    -0.77900
C17         C  0.29084503  0.26244546  0.25001785     0.82900
N18         N  0.27653790  0.25091212  0.28645978    -0.79600
C19         C  0.28440708  0.23989281  0.78652622     0.80400
N20         N  0.29808352  0.25200481  0.75002156    -0.77900
C21         C  0.28441662  0.23988065  0.71351564     0.82800
N22         N  0.25668113  0.21562916  0.71357841    -0.77900
C23         C  0.24236621  0.20410469  0.75001948     0.82900
N24         N  0.25667180  0.21564209  0.78646141    -0.79600
C25         C  0.00671010  0.21569219  0.71358139     0.80400
N26         N  0.01012896  0.24322131  0.71363983    -0.77900
C27         C  0.01284115  0.25741607  0.75005326     0.82800
N28         N  0.01010271  0.24321376  0.78646731    -0.77900
C29         C  0.00668390  0.21568479  0.78652943     0.82900
N30         N  0.00515059  0.20208823  0.75005646    -0.79600
C31         C  0.02646480  0.25084631  0.21358317     0.80400
N32         N  0.02801993  0.26444929  0.25005809    -0.77900
C33         C  0.02648558  0.25085339  0.28653090     0.82800
N34         N  0.02307028  0.22332583  0.28646884    -0.77900
C35         C  0.02033626  0.20912441  0.25005450     0.82900
N36         N  0.02304951  0.22331876  0.21364140    -0.79600
C37         C  0.04241446  0.48234886  0.25001805     0.80400
N38         N  0.01494621  0.45772325  0.25000902    -0.77900
C39         C  0.49036532  0.46031940  0.24998466     0.82800
N40         N  0.49312106  0.48749312  0.24997298    -0.77900
C41         C  0.02047629  0.01208031  0.24998371     0.82900
N42         N  0.04513705  0.00957222  0.25000728    -0.79600
C43         C  0.49077153  0.48420267  0.75004437     0.80400
N44         N  0.48804997  0.45697825  0.75003836    -0.77900
C45         C  0.01271292  0.45447349  0.75001622     0.82800
N46         N  0.04006951  0.47906589  0.75000001    -0.77900
C47         C  0.04281789  0.00624101  0.75000646     0.82900
N48         N  0.01823432  0.00883296  0.75003056    -0.79600
C49         C  0.45205951  0.07847998  0.12531041     0.80400
N50         N  0.46246519  0.09540546  0.09038306    -0.77900
C51         C  0.44576266  0.08739534  0.05519976     0.82800
N52         N  0.41905787  0.06196272  0.05472217    -0.77900
C53         C  0.40865421  0.04453638  0.08886353     0.82900
N54         N  0.42514119  0.05291787  0.12444671    -0.79600
O55         O  0.46439526  0.09387525  0.19614520    -0.78400
C56         C  0.47158815  0.08647222  0.33806970     0.82700
O57         O  0.04733765  0.18478709  0.25003864    -0.79500
O58         O  0.06963299  0.11802283  0.33034916    -0.80900
O59         O  0.02448182  0.05329866  0.21525590    -0.80700
O60         O  0.99593939  0.08665045  0.15786561    -0.79400
Zn61       Zn  0.98821381  0.11354402  0.25004636     1.55700
O62         O  0.02449990  0.05329680  0.28473802    -0.80800
Cd63       Cd  0.02902862  0.09355405  0.19941272     1.59700
Cd64       Cd  0.06115578  0.15463197  0.25003835     1.59600
O65         O  0.06959640  0.11803588  0.16965925    -0.80800
O66         O  0.02600281  0.11378529  0.25002880    -1.91300
Cd67       Cd  0.02905125  0.09354768  0.30061966     1.59900
O68         O  0.08843778  0.16238847  0.19960088    -0.80700
O69         O  0.99597477  0.08663893  0.34219996    -0.79400
C70         C  0.02165292  0.18195824  0.25004907     0.83200
C71         C  0.47155233  0.08647870  0.16202156     0.82800
O72         O  0.46442144  0.09387520  0.30396047    -0.78300
C73         C  0.02331563  0.04114498  0.24999238     0.83600
O74         O  0.99772987  0.15672106  0.25005474    -0.78400
C75         C  0.08964440  0.14519593  0.17277841     0.83800
C76         C  0.08966399  0.14519165  0.32726604     0.84100
O77         O  0.08843577  0.16239406  0.30048291    -0.80800
C78         C  0.45210401  0.07846971  0.37479078     0.80400
N79         N  0.46251019  0.09539799  0.40971667    -0.77900
C80         C  0.44580859  0.08738945  0.44490112     0.82800
N81         N  0.41910358  0.06195605  0.44538008    -0.77900
C82         C  0.40869898  0.04452822  0.41123842     0.82900
N83         N  0.42518513  0.05290864  0.37565533    -0.79600
C84         C  0.08113412  0.38808415  0.62530916     0.80400
N85         N  0.07072855  0.37115497  0.59038384    -0.77900
C86         C  0.08742770  0.37916513  0.55519712     0.82800
N87         N  0.11412925  0.40460137  0.55471411    -0.77900
C88         C  0.12453321  0.42203162  0.58885281     0.82900
N89         N  0.10804942  0.41365036  0.62443938    -0.79600
O90         O  0.06879717  0.37267525  0.69614076    -0.78400
C91         C  0.06160475  0.38006270  0.83807382     0.82700
O92         O  0.48584758  0.28176137  0.75005419    -0.79500
O93         O  0.46356707  0.34853549  0.83036553    -0.80900
O94         O  0.50870464  0.41325489  0.71528261    -0.80700
O95         O  0.03725886  0.37991829  0.65787792    -0.79400
Zn96       Zn  0.04497797  0.35300106  0.75004269     1.55700
O97         O  0.50870366  0.41326075  0.78476427    -0.80800
Cd98       Cd  0.50416696  0.37300426  0.69942945     1.59700
Cd99       Cd  0.47203740  0.31192239  0.75005105     1.59600
O100        O  0.46360109  0.34852015  0.66967378    -0.80800
O101        O  0.50719273  0.35276771  0.75003796    -1.91300
Cd102      Cd  0.50414824  0.37300587  0.80063341     1.59900
O103        O  0.44475830  0.30416656  0.69961112    -0.80700
O104        O  0.03722207  0.37990314  0.84220790    -0.79400
C105        C  0.51153020  0.28458553  0.75004824     0.83200
C106        C  0.06164315  0.38008321  0.66202453     0.82800
O107        O  0.06876917  0.37266009  0.80396145    -0.78300
C108        C  0.50987770  0.42541013  0.75002104     0.83600
O109        O  0.03545553  0.30982087  0.75003983    -0.78400
C110        C  0.44355356  0.32135983  0.67278928     0.83800
C111        C  0.44353376  0.32136762  0.82728100     0.84100
O112        O  0.44475880  0.30416449  0.80049515    -0.80800
C113        C  0.08108960  0.38806210  0.87479237     0.80400
N114        N  0.07068397  0.37113537  0.90971897    -0.77900
C115        C  0.08738615  0.37914635  0.94490331     0.82800
N116        N  0.11409033  0.40458088  0.94538116    -0.77900
C117        C  0.12449321  0.42200696  0.91123837     0.82900
N118        N  0.10800679  0.41362400  0.87565626    -0.79600
C119        C  0.35787319  0.41920669  0.62601023     0.80400
N120        N  0.35740230  0.39285939  0.62545795    -0.77900
C121        C  0.34924968  0.37614791  0.59007604     0.82800
N122        N  0.34171365  0.38590100  0.55579707    -0.77900
C123        C  0.34225743  0.41204722  0.55600436     0.82900
N124        N  0.35037088  0.42864094  0.59108492    -0.79600
O125        O  0.37632608  0.43182453  0.80407951    -0.78400
C126        C  0.36740009  0.43862901  0.66301202     0.82700
O127        O  0.46804012  0.01321518  0.75006660    -0.79500
O128        O  0.40299577  0.03647467  0.66766526    -0.80900
O129        O  0.33811724  0.99616335  0.78469511    -0.80700
O130        O  0.36691491  0.46268729  0.84002275    -0.79400
Zn131      Zn  0.39592956  0.45540291  0.75005666     1.55700
O132        O  0.33813408  0.99618088  0.71537667    -0.80800
Cd133      Cd  0.37689707  0.99722989  0.80044325     1.59700
Cd134      Cd  0.43834372  0.02790861  0.75006622     1.59600
O135        O  0.40295694  0.03646659  0.83242892    -0.80800
O136        O  0.39694116  0.99355424  0.75005246    -1.91300
Cd137      Cd  0.37691585  0.99723787  0.69964763     1.59900
O138        O  0.44654111  0.05549771  0.80001821    -0.80700
O139        O  0.36693414  0.46268779  0.66007788    -0.79400
C140        C  0.46432595  0.98721227  0.75005814     0.83200
C141        C  0.36738842  0.43863236  0.83709607     0.82800
O142        O  0.37632839  0.43181923  0.69603518    -0.78300
C143        C  0.32636240  0.99613315  0.75003301     0.83600
O144        O  0.43856733  0.46398021  0.75005545    -0.78400
C145        C  0.43005545  0.05664470  0.82819029     0.83800
C146        C  0.43009086  0.05665748  0.67192803     0.84100
O147        O  0.44656273  0.05551306  0.70012383    -0.80800
C148        C  0.35785786  0.41921075  0.87409687     0.80400
N149        N  0.35738160  0.39286140  0.87464642    -0.77900
C150        C  0.34922146  0.37614668  0.91002390     0.82800
N151        N  0.34168296  0.38589838  0.94430267    -0.77900
C152        C  0.34223201  0.41204712  0.94409814     0.82900
N153        N  0.35035309  0.42864442  0.90902135    -0.79600
C154        C  0.17530093  0.04733961  0.12598639     0.80400
N155        N  0.18279834  0.03790258  0.09105862    -0.77900
C156        C  0.19091148  0.05449559  0.05597837     0.82800
N157        N  0.19146060  0.08064447  0.05577340    -0.77900
C158        C  0.18392980  0.09040089  0.09005490     0.82900
N159        N  0.17577716  0.07368967  0.12543669    -0.79600
O160        O  0.15685139  0.03472979  0.30405546    -0.78400
C161        C  0.16577815  0.02791922  0.16298995     0.82700
O162        O  0.06513652  0.45333304  0.25005004    -0.79500
O163        O  0.13019026  0.43007144  0.16766324    -0.80900
O164        O  0.19505645  0.47038774  0.28470240    -0.80700
O165        O  0.16625569  0.50386375  0.34000684    -0.79400
Zn166      Zn  0.13725269  0.51114614  0.25003433     1.55700
O167        O  0.19504897  0.47037302  0.21538390    -0.80800
Cd168      Cd  0.15627397  0.46931881  0.30043324     1.59700
Cd169      Cd  0.09483300  0.43863856  0.25005530     1.59600
O170        O  0.13021905  0.43008350  0.33241953    -0.80800
O171        O  0.13623522  0.47299321  0.25003715    -1.91300
Cd172      Cd  0.15626712  0.46931235  0.19963771     1.59900
O173        O  0.08663566  0.41104751  0.30000689    -0.80700
O174        O  0.16625111  0.50386168  0.16005920    -0.79400
C175        C  0.06885295  0.47933703  0.25003515     0.83200
C176        C  0.16578332  0.02792076  0.33707564     0.82800
O177        O  0.15684910  0.03472932  0.19601263    -0.78300
C178        C  0.20681599  0.47041947  0.25004410     0.83600
O179        O  0.09461654  0.50256747  0.25002963    -0.78400
C180        C  0.10312215  0.40990254  0.32817937     0.83800
C181        C  0.10309475  0.40988934  0.17192446     0.84100
O182        O  0.08662011  0.41103576  0.20011445    -0.80800
C183        C  0.17531411  0.04734250  0.37407572     0.80400
N184        N  0.17579592  0.07369451  0.37462490    -0.77900
C185        C  0.18396051  0.09041045  0.41000206     0.82800
N186        N  0.19149769  0.08065764  0.44427956    -0.77900
C187        C  0.19094340  0.05450652  0.44407470     0.82900
N188        N  0.18281807  0.03790787  0.40899888    -0.79600
C189        C  0.35054369  0.17694853  0.57756519     0.80400
N190        N  0.37665506  0.17702853  0.57809893    -0.77900
C191        C  0.37669046  0.15103909  0.57795197     0.82800
N192        N  0.35048269  0.12498117  0.57717582    -0.77900
C193        C  0.32433160  0.12477063  0.57661589     0.82900
N194        N  0.32444798  0.15077143  0.57688399    -0.79600
O195        O  0.03437833  0.14765692  0.61921179    -0.78400
C196        C  0.99967324  0.19870211  0.67508081     0.82700
O197        O  0.42789479  0.08319960  0.61361205    -0.79500
O198        O  0.42882122  0.17537893  0.58568949    -0.80900
O199        O  0.01743872  0.20027356  0.50573616    -0.80700
O200        O  0.04205868  0.15741937  0.55149399    -0.79400
Zn201      Zn  0.49516489  0.14518931  0.63036090     1.55700
O202        O  0.49393529  0.21800331  0.54336431    -0.80800
Cd203      Cd  0.00467391  0.15902839  0.53182010     1.59700
Cd204      Cd  0.43792400  0.11613315  0.57004963     1.59600
O205        O  0.48248910  0.12755167  0.48519356    -0.80800
O206        O  0.47796063  0.15158939  0.58052821    -1.91300
Cd207      Cd  0.47284820  0.18669502  0.58838631     1.59900
O208        O  0.43715013  0.09911325  0.51200904    -0.80700
O209        O  0.49008179  0.20676784  0.64440775    -0.79400
C210        C  0.44271053  0.08273538  0.64476019     0.83200
C211        C  0.05007000  0.15251207  0.58674626     0.82800
O212        O  0.00187627  0.17552990  0.67402524    -0.78300
C213        C  0.01069610  0.22014750  0.51335715     0.83600
O214        O  0.46810094  0.10468896  0.65391068    -0.78400
C215        C  0.45588573  0.10577221  0.48264669     0.83800
C216        C  0.40488272  0.15107843  0.57874276     0.84100
O217        O  0.40465137  0.12688944  0.57237616    -0.80800
O218        O  0.03134944  0.29102913  0.32607825    -0.78400
C219        C  0.48317058  0.31407252  0.41332139     0.82700
O220        O  0.10533548  0.38336491  0.38649039    -0.79500
O221        O  0.05074205  0.33901357  0.51489670    -0.80900
O222        O  0.03930219  0.24857099  0.45674467    -0.80700
O223        O  0.04313139  0.25978315  0.35569864    -0.79400
Zn224      Zn  0.03806999  0.32137301  0.36973429     1.55700
O225        O  0.01578403  0.26629465  0.49435360    -0.80800
Cd226      Cd  0.06038303  0.27986789  0.41170949     1.59700
Cd227      Cd  0.09531262  0.35042664  0.43004499     1.59600
O228        O  0.10440946  0.29117806  0.41438432    -0.80800
O229        O  0.05527323  0.31497471  0.41956746    -1.91300
Cd230      Cd  0.02855494  0.30754156  0.46826695     1.59900
O231        O  0.12858325  0.33966694  0.42770164    -0.80700
O232        O  0.49117718  0.30916387  0.44857755    -0.79400
C233        C  0.09051610  0.38382506  0.35534361     0.83200
C234        C  0.03354019  0.26785024  0.32502660     0.82800
O235        O  0.99886296  0.31891982  0.38086016    -0.78300
C236        C  0.02253419  0.24642457  0.48674338     0.83600
O237        O  0.06513050  0.36186725  0.34619010    -0.78400
C238        C  0.12834983  0.31547754  0.42132709     0.83800
C239        C  0.07734939  0.36078463  0.51745026     0.84100
O240        O  0.09608745  0.36743894  0.48809206    -0.80800
O241        O  0.16355319  0.46622251  0.61833057    -0.78400
C242        C  0.25038149  0.50516154  0.67465769     0.82700
O243        O  0.20516728  0.07287900  0.61311775    -0.79500
O244        O  0.29670293  0.07277012  0.58219301    -0.80900
O245        O  0.23299815  0.48338929  0.50465866    -0.80700
O246        O  0.16547770  0.45883550  0.55045168    -0.79400
Zn247      Zn  0.19976707  0.00620900  0.62917168     1.55700
O248        O  0.27425207  0.00656149  0.54278542    -0.80800
Cd249      Cd  0.20452086  0.49642329  0.53048230     1.59700
Cd250      Cd  0.22780611  0.06298923  0.56899697     1.59600
O251        O  0.19519581  0.01855629  0.48414680    -0.80800
O252        O  0.22354673  0.02328315  0.57911293    -1.91300
Cd253      Cd  0.26414715  0.02887439  0.58622734     1.59900
O254        O  0.21124805  0.06352925  0.51123959    -0.80700
O255        O  0.26777828  0.01419835  0.64356030    -0.79400
C256        C  0.18955257  0.05799421  0.64403877     0.83200
C257        C  0.15276042  0.45048115  0.58586105     0.82800
O258        O  0.22438112  0.50165606  0.67343061    -0.78300
C259        C  0.25952715  0.48961903  0.51288631     0.83600
O260        O  0.18544186  0.03247614  0.65284830    -0.78400
C261        C  0.19951750  0.04484512  0.48178828     0.83800
C262        C  0.29611985  0.09654686  0.57657848     0.84100
O263        O  0.27191415  0.09657903  0.57126463    -0.80800
O264        O  0.30882778  0.46492543  0.32663061    -0.78400
C265        C  0.38046630  0.01608330  0.41421905     0.82700
O266        O  0.32806569  0.39370011  0.38694334    -0.79500
O267        O  0.33800543  0.44799812  0.51592982    -0.80900
O268        O  0.25895888  0.45999300  0.45727745    -0.80700
O269        O  0.26541948  0.45235328  0.35650548    -0.79400
Zn270      Zn  0.33344403  0.46036435  0.37088292     1.55700
O271        O  0.30021851  0.48317529  0.49539519    -0.80800
Cd272      Cd  0.26906716  0.43768321  0.41383496     1.59700
Cd273      Cd  0.30542236  0.40358020  0.43106340     1.59600
O274        O  0.23652157  0.39378612  0.41787007    -0.80800
O275        O  0.30967135  0.44328255  0.42094591    -1.91300
Cd276      Cd  0.32869598  0.47013780  0.46958379     1.59900
O277        O  0.26131824  0.36998332  0.42878269    -0.80700
O278        O  0.36774585  0.00772550  0.44962558    -0.79400
C279        C  0.34366267  0.40857898  0.35600724     0.83200
C280        C  0.28282129  0.46140627  0.32540674     0.82800
O281        O  0.36967208  0.00034954  0.38174230    -0.78300
C282        C  0.27368783  0.47694121  0.48717038     0.83600
O283        O  0.34776054  0.43409162  0.34718987    -0.78400
C284        C  0.23711015  0.37001150  0.42347419     0.83800
C285        C  0.33369002  0.42171145  0.51828550     0.84100
O286        O  0.32197240  0.40303250  0.48882573    -0.80800
C287        C  0.18269172  0.28960938  0.42247204     0.80400
N288        N  0.15657905  0.28952754  0.42194746    -0.77900
C289        C  0.15654215  0.31551629  0.42210409     0.82800
N290        N  0.18274915  0.34157431  0.42288095    -0.77900
C291        C  0.20890092  0.34178650  0.42343223     0.83500
N292        N  0.20878666  0.31578694  0.42315469    -0.79600
O293        O  0.39597723  0.31263416  0.65560570    -0.78400
C294        C  0.34890974  0.34784865  0.58755759     0.82700
O295        O  0.29360527  0.23247251  0.64421218    -0.79500
O296        O  0.29981217  0.26739511  0.50608493    -0.80900
O297        O  0.40153178  0.28956821  0.51174478    -0.80700
O298        O  0.41740939  0.29527106  0.61313289    -0.79400
Zn299      Zn  0.35568636  0.30001195  0.63101040     1.55700
O300        O  0.37276731  0.30577527  0.48509624    -0.80800
Cd301      Cd  0.38456653  0.27284281  0.56949513     1.59700
Cd302      Cd  0.31379401  0.23602458  0.58787304     1.59600
O303        O  0.37443833  0.22913670  0.57150048    -0.80800
O304        O  0.34897073  0.27668056  0.58061181    -1.91300
Cd305      Cd  0.34140860  0.29588544  0.53208245     1.59900
O306        O  0.32582011  0.20401845  0.58488407    -0.80700
O307        O  0.34351549  0.33471805  0.55242001    -0.79400
C308        C  0.30150829  0.25012877  0.67497435     0.83200
C309        C  0.41777073  0.30939882  0.64546147     0.82800
O310        O  0.35401710  0.33721422  0.61998851    -0.78300
C311        C  0.39470137  0.30142010  0.48245468     0.83600
O312        O  0.32465664  0.27582884  0.67402788    -0.78400
C313        C  0.35030906  0.20489151  0.57802305     0.83800
C314        C  0.27990040  0.24050716  0.51326109     0.84100
O315        O  0.28224890  0.22564766  0.54271691    -0.80800
O316        O  0.20856476  0.19071988  0.32601954    -0.78400
C317        C  0.18431261  0.11871440  0.41251437     0.82700
O318        O  0.11582135  0.17129024  0.38691173    -0.79500
O319        O  0.16047805  0.16081311  0.51496372    -0.80900
O320        O  0.25099845  0.24092154  0.45732202    -0.80700
O321        O  0.23962547  0.23407621  0.35582982    -0.79400
Zn322      Zn  0.17753895  0.16654436  0.36904273     1.55700
O323        O  0.23343494  0.19917772  0.49396123    -0.80800
Cd324      Cd  0.21944624  0.23053667  0.41217133     1.59700
Cd325      Cd  0.14866923  0.19371821  0.43054533     1.59600
O326        O  0.20741869  0.26254217  0.41515580    -0.80800
O327        O  0.18426661  0.18988319  0.41943671    -1.91300
Cd328      Cd  0.19183403  0.17068993  0.46797450     1.59900
O329        O  0.15879906  0.23742250  0.42853153    -0.80700
O330        O  0.18971459  0.13185049  0.44764830    -0.79400
C331        C  0.11545210  0.15715391  0.35458873     0.83200
C332        C  0.23171570  0.21641783  0.32506943     0.82800
O333        O  0.17920590  0.12934610  0.38008049    -0.78300
C334        C  0.25334793  0.22606417  0.48677997     0.83600
O335        O  0.13724252  0.15391272  0.34444656    -0.78400
C336        C  0.18292836  0.26166776  0.42201205     0.83800
C337        C  0.13854006  0.16516318  0.51759836     0.84100
O338        O  0.13170445  0.17700383  0.48829925    -0.80800
C339        C  0.11117216  0.14145595  0.62545958     0.80400
N340        N  0.08607566  0.14346746  0.62493545    -0.77900
C341        C  0.07800148  0.15193825  0.58950602     0.82800
N342        N  0.09525496  0.15865624  0.55524365    -0.77900
C343        C  0.12022898  0.15678146  0.55539810     0.82900
N344        N  0.12796354  0.14775999  0.59040222    -0.79600
O345        O  0.12653307  0.14443211  0.69623994    -0.78400
C346        C  0.11892115  0.12984171  0.83792289     0.82700
O347        O  0.21726997  0.15255957  0.75003501    -0.79500
O348        O  0.14988413  0.06348744  0.83109259    -0.80900
O349        O  0.08457610  0.04345015  0.71525225    -0.80700
O350        O  0.11879301  0.10553711  0.65790078    -0.79400
Zn351      Zn  0.14612881  0.14029701  0.75002267     1.55700
O352        O  0.08456349  0.04346134  0.78476356    -0.80800
Cd353      Cd  0.12535524  0.07917122  0.69929233     1.59700
Cd354      Cd  0.18662124  0.10846248  0.75001930     1.59600
O355        O  0.14990971  0.06349329  0.66894360    -0.80800
O356        O  0.14578974  0.10255199  0.75001976    -1.91300
Cd357      Cd  0.12533993  0.07917551  0.80074157     1.59900
O358        O  0.19435228  0.08942844  0.69905188    -0.80700
O359        O  0.11876455  0.10553646  0.84213357    -0.79400
C360        C  0.21482866  0.17552679  0.75002396     0.83200
C361        C  0.11894620  0.12984048  0.66211365     0.82800
O362        O  0.12652267  0.14443815  0.80380092    -0.78300
C363        C  0.07220214  0.03256023  0.75000665     0.83600
O364        O  0.18966690  0.17421606  0.75001798    -0.78400
C365        C  0.17724165  0.07115543  0.67182124     0.83800
C366        C  0.17720876  0.07112384  0.82819886     0.84100
O367        O  0.19432407  0.08938684  0.80096200    -0.80800
C368        C  0.11114103  0.14145545  0.87457891     0.80400
N369        N  0.08603739  0.14345641  0.87511039    -0.77900
C370        C  0.07796140  0.15192314  0.91054536     0.82800
N371        N  0.09521906  0.15864580  0.94480340    -0.77900
C372        C  0.12019768  0.15677982  0.94464283     0.82900
N373        N  0.12793473  0.14776369  0.90963480    -0.79600
C374        C  0.35048803  0.17693590  0.92247404     0.80400
N375        N  0.32439176  0.15075815  0.92314680    -0.77900
C376        C  0.32427632  0.12475735  0.92342064     0.82800
N377        N  0.35042837  0.12496930  0.92287629    -0.77900
C378        C  0.37663609  0.15102741  0.92210922     0.82900
N379        N  0.37659971  0.17701616  0.92195565    -0.79600
O380        O  0.00182503  0.17551306  0.82607934    -0.78400
C381        C  0.05002679  0.15249323  0.91331823     0.82700
O382        O  0.42784620  0.08318551  0.88650020    -0.79500
O383        O  0.48244941  0.12754012  0.01489359    -0.80900
O384        O  0.49388493  0.21797987  0.95674954    -0.80700
O385        O  0.49004277  0.20675973  0.85570005    -0.79400
Zn386      Zn  0.49511506  0.14517575  0.86973873     1.55700
O387        O  0.01740386  0.20025578  0.99435438    -0.80800
Cd388      Cd  0.47279821  0.18668072  0.91171638     1.59700
Cd389      Cd  0.43787207  0.11612580  0.93005105     1.59600
O390        O  0.42877008  0.17536812  0.91439824    -0.80800
O391        O  0.47791227  0.15157651  0.91957068    -1.91300
Cd392      Cd  0.00463517  0.15901155  0.96826501     1.59900
O393        O  0.40459717  0.12687886  0.92770708    -0.80700
O394        O  0.04201860  0.15739852  0.94857581    -0.79400
C395        C  0.44266502  0.08272241  0.85535475     0.83200
C396        C  0.99963164  0.19869043  0.82502656     0.82800
O397        O  0.03433059  0.14764045  0.88085924    -0.78300
C398        C  0.01065403  0.22012591  0.98674646     0.83600
O399        O  0.46805245  0.10467783  0.84620178    -0.78400
C400        C  0.40482950  0.15106764  0.92133598     0.83800
C401        C  0.45584055  0.10577231  0.01745158     0.84100
O402        O  0.43710002  0.09911861  0.98809731    -0.80800
O403        O  0.99881460  0.31889090  0.11922638    -0.78400
C404        C  0.03350604  0.26783772  0.17508491     0.82700
O405        O  0.10529128  0.38334572  0.11361138    -0.79500
O406        O  0.10436739  0.29116585  0.08571801    -0.80900
O407        O  0.01574840  0.26627454  0.00574775    -0.80700
O408        O  0.49113642  0.30913319  0.05150707    -0.79400
Zn409      Zn  0.03802551  0.32135479  0.13037158     1.55700
O410        O  0.03925762  0.24854648  0.04336510    -0.80800
Cd411      Cd  0.02851765  0.30751958  0.03183191     1.59700
Cd412      Cd  0.09526437  0.35040895  0.07005749     1.59600
O413        O  0.05070333  0.33899155  0.98520209    -0.80800
O414        O  0.05522881  0.31495466  0.08053888    -1.91300
Cd415      Cd  0.06033935  0.27984875  0.08839715     1.59900
O416        O  0.09604470  0.36742483  0.01201232    -0.80700
O417        O  0.04309521  0.25976994  0.14441073    -0.79400
C418        C  0.09047711  0.38380958  0.14476167     0.83200
C419        C  0.48312481  0.31403936  0.08676037     0.82800
O420        O  0.03131003  0.29101383  0.17403312    -0.78300
C421        C  0.02249359  0.24640206  0.01336227     0.83600
O422        O  0.06508953  0.36185450  0.15391814    -0.78400
C423        C  0.07730851  0.36076683  0.98265117     0.83800
C424        C  0.12830569  0.31546750  0.07877601     0.84100
O425        O  0.12853581  0.33965474  0.07240253    -0.80800
O426        O  0.22434718  0.50161191  0.82661344    -0.78400
C427        C  0.15272193  0.45045467  0.91421604     0.82700
O428        O  0.20510820  0.07283507  0.88692063    -0.79500
O429        O  0.19516542  0.01854393  0.01590806    -0.80900
O430        O  0.27421871  0.00654993  0.95726936    -0.80700
O431        O  0.26774973  0.01418050  0.85648713    -0.79400
Zn432      Zn  0.19972738  0.00617073  0.87086738     1.55700
O433        O  0.23296485  0.48337749  0.99539561    -0.80800
Cd434      Cd  0.26410819  0.02885499  0.91381798     1.59700
Cd435      Cd  0.22775180  0.06295785  0.93104139     1.59600
O436        O  0.29665439  0.07275579  0.91784930    -0.80800
O437        O  0.22350396  0.02325551  0.92092844    -1.91300
Cd438      Cd  0.20448593  0.49640642  0.96957117     1.59900
O439        O  0.27185687  0.09655766  0.92876426    -0.80700
O440        O  0.16544264  0.45881643  0.94962153    -0.79400
C441        C  0.18950954  0.05795574  0.85598564     0.83200
C442        C  0.25034736  0.00512807  0.82538845     0.82800
O443        O  0.16351177  0.46618734  0.88173798    -0.78300
C444        C  0.25949470  0.48960953  0.98717084     0.83600
O445        O  0.18540877  0.03244147  0.84716937    -0.78400
C446        C  0.29606583  0.09653073  0.92345587     0.83800
C447        C  0.19947930  0.04483006  0.01826058     0.84100
O448        O  0.21119817  0.06350772  0.98880062    -0.80800
O449        O  0.36963795  0.00034861  0.11834899    -0.78400
C450        C  0.28281096  0.46140933  0.17467764     0.82700
O451        O  0.32801655  0.39368781  0.11314930    -0.79500
O452        O  0.23648047  0.39379089  0.08222657    -0.80900
O453        O  0.30018585  0.48316755  0.00467135    -0.80700
O454        O  0.36770517  0.00773205  0.05047085    -0.79400
Zn455      Zn  0.33341925  0.46035927  0.12919457     1.55700
O456        O  0.25892938  0.45999754  0.04279666    -0.80800
Cd457      Cd  0.32866283  0.47013807  0.03050432     1.59700
Cd458      Cd  0.30537837  0.40357551  0.06902864     1.59600
O459        O  0.33798318  0.44799930  0.98417227    -0.80800
O460        O  0.30963639  0.44328152  0.07913827    -1.91300
Cd461      Cd  0.26903516  0.43768949  0.08624780     1.59900
O462        O  0.32193126  0.40302790  0.01126762    -0.80700
O463        O  0.26540809  0.45237014  0.14357900    -0.79400
C464        C  0.34363086  0.40857241  0.14407078     0.83200
C465        C  0.38042625  0.01608814  0.08587765     0.82800
O466        O  0.30881118  0.46491486  0.17345099    -0.78300
C467        C  0.27365637  0.47693712  0.01289549     0.83600
O468        O  0.34774420  0.43409217  0.15287855    -0.78400
C469        C  0.33366028  0.42171002  0.98181421     0.83800
C470        C  0.23706682  0.37001475  0.07662082     0.84100
O471        O  0.26127358  0.36998512  0.07130742    -0.80800
C472        C  0.18265433  0.28961024  0.07760849     0.80400
N473        N  0.15654035  0.28952492  0.07814084    -0.77900
C474        C  0.15649981  0.31551157  0.07799611     0.82800
N475        N  0.18270477  0.34157221  0.07722291    -0.77900
C476        C  0.20885827  0.34178818  0.07666450     0.82900
N477        N  0.20874744  0.31579002  0.07693026    -0.79600
O478        O  0.32464050  0.27584253  0.82602480    -0.78400
C479        C  0.34887739  0.34784614  0.91253495     0.82700
O480        O  0.41737175  0.29525923  0.88691721    -0.79500
O481        O  0.37272804  0.30575144  0.01497120    -0.80900
O482        O  0.28220317  0.22564546  0.95732444    -0.80700
O483        O  0.29357800  0.23248755  0.85583460    -0.79400
Zn484      Zn  0.35566086  0.30002076  0.86905766     1.55700
O485        O  0.29977305  0.26738536  0.99397717    -0.80800
Cd486      Cd  0.31375396  0.23602647  0.91217620     1.59700
Cd487      Cd  0.38452622  0.27283337  0.93055472     1.59600
O488        O  0.32576883  0.20401155  0.91515880    -0.80800
O489        O  0.34893474  0.27667870  0.91944699    -1.91300
Cd490      Cd  0.34137092  0.29587451  0.96798721     1.59900
O491        O  0.37438749  0.22912433  0.92853856    -0.80700
O492        O  0.34348250  0.33471217  0.94766910    -0.79400
C493        C  0.41774639  0.30940676  0.85460454     0.83200
C494        C  0.30149005  0.25014389  0.82507298     0.82800
O495        O  0.35398378  0.33721491  0.88009913    -0.78300
C496        C  0.27985737  0.24050089  0.98678909     0.83600
O497        O  0.39596090  0.31265815  0.84447052    -0.78400
C498        C  0.35025611  0.20488071  0.92201670     0.83800
C499        C  0.39466175  0.30139521  0.01760722     0.84100
O500        O  0.40149329  0.28954869  0.98830998    -0.80800
O501        O  0.13722574  0.15392909  0.15560460    -0.78400
C502        C  0.18427876  0.11870517  0.08754106     0.82700
O503        O  0.23960190  0.23408422  0.14421516    -0.79500
O504        O  0.23339440  0.19916949  0.00609068    -0.80900
O505        O  0.13167786  0.17701039  0.01173788    -0.80700
O506        O  0.11579000  0.17128141  0.11312179    -0.79400
Zn507      Zn  0.17751625  0.16654819  0.13100686     1.55700
O508        O  0.16044086  0.16080335  0.98508318    -0.80800
Cd509      Cd  0.14863874  0.19371994  0.06949627     1.59700
Cd510      Cd  0.21941083  0.23053793  0.08788066     1.59600
O511        O  0.15876560  0.23742423  0.07152695    -0.80800
O512        O  0.18423406  0.18988186  0.08061147    -1.91300
Cd513      Cd  0.19179450  0.17067908  0.03207638     1.59900
O514        O  0.20738421  0.26254456  0.08490813    -0.80700
O515        O  0.18967597  0.13183821  0.05240534    -0.79400
C516        C  0.23169950  0.21642572  0.17497351     0.83200
C517        C  0.11542948  0.15715808  0.14545390     0.82800
O518        O  0.17917629  0.12934156  0.11997498    -0.78300
C519        C  0.13850899  0.16516238  0.98244262     0.83600
O520        O  0.20854977  0.19072649  0.17402475    -0.78400
C521        C  0.18289362  0.26166968  0.07805449     0.83800
C522        C  0.25330511  0.22605777  0.01326878     0.84100
O523        O  0.25095520  0.24091751  0.04272393    -0.80800
C524        C  0.42206979  0.32513386  0.37459453     0.80400
N525        N  0.44716839  0.32312396  0.37512048    -0.77900
C526        C  0.45524245  0.31465356  0.41055286     0.82800
N527        N  0.43798782  0.30793490  0.44481261    -0.77900
C528        C  0.41301377  0.30980824  0.44465701     0.82900
N529        N  0.40527820  0.31882839  0.40965228    -0.79600
O530        O  0.40667973  0.32213844  0.19625591    -0.78400
C531        C  0.41428643  0.33674206  0.33793642     0.82700
O532        O  0.31592998  0.31398878  0.25002065    -0.79500
O533        O  0.38329964  0.40307599  0.33109062    -0.80900
O534        O  0.44860572  0.42310405  0.21524245    -0.80700
O535        O  0.41438556  0.36101393  0.15790070    -0.79400
Zn536      Zn  0.38707812  0.32627130  0.25003608     1.55700
O537        O  0.44862104  0.42310991  0.28475402    -0.80800
Cd538      Cd  0.40782596  0.38738242  0.19929316     1.59700
Cd539      Cd  0.34656628  0.35808821  0.25003370     1.59600
O540        O  0.38326993  0.40306098  0.16895486    -0.80800
O541        O  0.38740127  0.36400829  0.25002741    -1.91300
Cd542      Cd  0.40785007  0.38739395  0.30074324     1.59900
O543        O  0.33883468  0.37714110  0.19908734    -0.80700
O544        O  0.41443503  0.36104376  0.34214301    -0.79400
C545        C  0.31837884  0.29102595  0.25002235     0.83200
C546        C  0.41425063  0.33672031  0.16212200     0.82800
O547        O  0.40668913  0.32214301  0.30381594    -0.78300
C548        C  0.46098047  0.43400254  0.24999351     0.83600
O549        O  0.34354386  0.29234347  0.25003293    -0.78400
C550        C  0.35594176  0.39540948  0.17184976     0.83800
C551        C  0.35596748  0.39541470  0.32822019     0.84100
O552        O  0.33884972  0.37713530  0.30099982    -0.80800
C553        C  0.42202654  0.32510398  0.12546909     0.80400
N554        N  0.40523731  0.31880085  0.09040994    -0.77900
C555        C  0.41297161  0.30977667  0.05540740     0.82800
N556        N  0.43794345  0.30789865  0.05525586    -0.77900
C557        C  0.45519522  0.31461599  0.08951951     0.82900
N558        N  0.44712117  0.32308896  0.12494825    -0.79600
C559        C  0.26136774  0.00006112  0.78648344     0.80400
N560        N  0.24884214  0.00092713  0.75002138    -0.77900
C561        C  0.26138319  0.00007918  0.71356360     0.82800
N562        N  0.28641450  0.99823428  0.71364594    -0.77900
C563        C  0.29868637  0.99679957  0.75002848     0.82900
N564        N  0.28640001  0.99821733  0.78640814    -0.79600
C565        C  0.27180539  0.96649451  0.21358430     0.80400
N566        N  0.28433954  0.96563564  0.25004194    -0.77900
C567        C  0.27180785  0.96649157  0.28650364     0.82800
N568        N  0.24677542  0.96833592  0.28642785    -0.77900
C569        C  0.23449621  0.96976440  0.25004691     0.82900
N570        N  0.24677474  0.96833970  0.21366558    -0.79600
C571        C  0.24879817  0.72666435  0.28652446     0.80400
N572        N  0.23512164  0.71455114  0.25001996    -0.77900
C573        C  0.24878997  0.72667146  0.21351410     0.82800
N574        N  0.27652691  0.75092061  0.21357682    -0.77900
C575        C  0.29084212  0.76244545  0.25001784     0.82900
N576        N  0.27653506  0.75091220  0.28645970    -0.79600
C577        C  0.28440398  0.73989337  0.78652632     0.80400
N578        N  0.29808031  0.75200560  0.75002163    -0.77900
C579        C  0.28441362  0.73988123  0.71351567     0.82800
N580        N  0.25667836  0.71562942  0.71357839    -0.77900
C581        C  0.24236350  0.70410483  0.75001945     0.82900
N582        N  0.25666899  0.71564228  0.78646141    -0.79600
C583        C  0.00671357  0.71569746  0.71358138     0.80400
N584        N  0.01012973  0.74322554  0.71363982    -0.77900
C585        C  0.01284034  0.75741976  0.75005328     0.82800
N586        N  0.01010326  0.74321788  0.78646732    -0.77900
C587        C  0.00668729  0.71569003  0.78652942     0.82900
N588        N  0.00515539  0.70209408  0.75005644    -0.79600
C589        C  0.02646470  0.75084880  0.21358320     0.80400
N590        N  0.02802024  0.76445190  0.25005807    -0.77900
C591        C  0.02648549  0.75085589  0.28653084     0.82800
N592        N  0.02306924  0.72332791  0.28646886    -0.77900
C593        C  0.02033464  0.70912625  0.25005450     0.82900
N594        N  0.02304846  0.72332082  0.21364140    -0.79600
C595        C  0.04241213  0.98234652  0.25001804     0.80400
N596        N  0.01494407  0.95772057  0.25000902    -0.77900
C597        C  0.49036298  0.96031641  0.24998466     0.82800
N598        N  0.49311836  0.98749001  0.24997299    -0.77900
C599        C  0.02047902  0.51208326  0.24998371     0.82900
N600        N  0.04513975  0.50957493  0.25000729    -0.79600
C601        C  0.49076740  0.98420471  0.75004437     0.80400
N602        N  0.48804640  0.95698054  0.75003836    -0.77900
C603        C  0.01270957  0.95447632  0.75001622     0.82800
N604        N  0.04006593  0.97906885  0.75000001    -0.77900
C605        C  0.04282181  0.50623821  0.75000646     0.82900
N606        N  0.01823858  0.50883057  0.75003056    -0.79600
C607        C  0.45205683  0.57847963  0.12530931     0.80400
N608        N  0.46246267  0.59540553  0.09038228    -0.77900
C609        C  0.44576101  0.58739540  0.05519821     0.82800
N610        N  0.41905667  0.56196197  0.05471931    -0.77900
C611        C  0.40865274  0.54453505  0.08886049     0.82900
N612        N  0.42513901  0.55291687  0.12444434    -0.79600
O613        O  0.46439264  0.59387598  0.19614427    -0.78400
C614        C  0.47158529  0.58647208  0.33807030     0.82700
O615        O  0.04733552  0.68478841  0.25003865    -0.79500
O616        O  0.06963076  0.61802522  0.33035107    -0.80900
O617        O  0.02448290  0.55330117  0.21525591    -0.80700
O618        O  0.99593644  0.58665006  0.15786570    -0.79400
Zn619      Zn  0.98821122  0.61354502  0.25004637     1.55700
O620        O  0.02450098  0.55329931  0.28473802    -0.80800
Cd621      Cd  0.02902684  0.59355549  0.19941241     1.59700
Cd622      Cd  0.06115407  0.65463358  0.25003835     1.59600
O623        O  0.06959415  0.61803835  0.16965748    -0.80800
O624        O  0.02600073  0.61378665  0.25002898    -1.91300
Cd625      Cd  0.02904945  0.59354910  0.30062026     1.59900
O626        O  0.08843632  0.66239051  0.19960054    -0.80700
O627        O  0.99597171  0.58663837  0.34219997    -0.79400
C628        C  0.02165085  0.68195975  0.25004908     0.83200
C629        C  0.47154949  0.58647859  0.16202102     0.82800
O630        O  0.46441888  0.59387597  0.30396144    -0.78300
C631        C  0.02331778  0.54114789  0.24999238     0.83600
O632        O  0.99772767  0.65672259  0.25005474    -0.78400
C633        C  0.08964252  0.64519825  0.17277711     0.83800
C634        C  0.08966211  0.64519390  0.32726734     0.84100
O635        O  0.08843424  0.66239598  0.30048323    -0.80800
C636        C  0.45210133  0.57846940  0.37479196     0.80400
N637        N  0.46250762  0.59539809  0.40971753    -0.77900
C638        C  0.44580697  0.58738947  0.44490284     0.82800
N639        N  0.41910237  0.56195523  0.44538299    -0.77900
C640        C  0.40869752  0.54452689  0.41124154     0.82900
N641        N  0.42518301  0.55290757  0.37565778    -0.79600
C642        C  0.08112898  0.88808587  0.62530800     0.80400
N643        N  0.07072361  0.87115660  0.59038265    -0.77900
C644        C  0.08742334  0.87916658  0.55519637     0.82800
N645        N  0.11412500  0.90460253  0.55471389    -0.77900
C646        C  0.12452860  0.92203268  0.58885236     0.82900
N647        N  0.10804447  0.91365180  0.62443861    -0.79600
O648        O  0.06879291  0.87267818  0.69614017    -0.78400
C649        C  0.06159974  0.88006455  0.83807478     0.82700
O650        O  0.48584515  0.78176388  0.75005445    -0.79500
O651        O  0.46356309  0.84853900  0.83036332    -0.80900
O652        O  0.50870146  0.91325803  0.71528260    -0.80700
O653        O  0.03725389  0.87992010  0.65787720    -0.79400
Zn654      Zn  0.04497425  0.85300426  0.75004268     1.55700
O655        O  0.50870049  0.91326389  0.78476424    -0.80800
Cd656      Cd  0.50416311  0.87300723  0.69942981     1.59700
Cd657      Cd  0.47203492  0.81192512  0.75005108     1.59600
O658        O  0.46359704  0.84852354  0.66967592    -0.80800
O659        O  0.50718937  0.85277069  0.75003789    -1.91300
Cd660      Cd  0.50414440  0.87300884  0.80063281     1.59900
O661        O  0.44475594  0.80416954  0.69961160    -0.80700
O662        O  0.03721696  0.87990478  0.84220872    -0.79400
C663        C  0.51152806  0.78458870  0.75004832     0.83200
C664        C  0.06163826  0.88008519  0.66202361     0.82800
O665        O  0.06876476  0.87266288  0.80396209    -0.78300
C666        C  0.50987466  0.92541325  0.75002103     0.83600
O667        O  0.03545294  0.80982444  0.75003979    -0.78400
C668        C  0.44355032  0.82136296  0.67279092     0.83800
C669        C  0.44353058  0.82137087  0.82727945     0.84100
O670        O  0.44475639  0.80416752  0.80049478    -0.80800
C671        C  0.08108443  0.88806374  0.87479351     0.80400
N672        N  0.07067900  0.87113692  0.90972013    -0.77900
C673        C  0.08738182  0.87914783  0.94490410     0.82800
N674        N  0.11408600  0.90458202  0.94538136    -0.77900
C675        C  0.12448856  0.92200801  0.91123875     0.82900
N676        N  0.10800177  0.91362539  0.87565700    -0.79600
C677        C  0.35787031  0.91920643  0.62600807     0.80400
N678        N  0.35739920  0.89285907  0.62545531    -0.77900
C679        C  0.34924813  0.87614865  0.59007243     0.82800
N680        N  0.34171383  0.88590288  0.55579294    -0.77900
C681        C  0.34225796  0.91204939  0.55600067     0.82900
N682        N  0.35036984  0.92864192  0.59108230    -0.79600
O683        O  0.37632167  0.93182309  0.80408064    -0.78400
C684        C  0.36739557  0.93862757  0.66301100     0.82700
O685        O  0.46804602  0.51321482  0.75006661    -0.79500
O686        O  0.40300298  0.53647766  0.66766645    -0.80900
O687        O  0.33812468  0.49616791  0.78469512    -0.80700
O688        O  0.36690954  0.96268541  0.84002330    -0.79400
Zn689      Zn  0.39592411  0.95540121  0.75005668     1.55700
O690        O  0.33814139  0.49618525  0.71537678    -0.80800
Cd691      Cd  0.37690386  0.49723267  0.80044297     1.59700
Cd692      Cd  0.43835114  0.52791049  0.75006620     1.59600
O693        O  0.40296409  0.53646962  0.83242772    -0.80800
O694        O  0.39694796  0.49355674  0.75005238    -1.91300
Cd695      Cd  0.37692262  0.49724065  0.69964769     1.59900
O696        O  0.44654861  0.55550045  0.80001793    -0.80700
O697        O  0.36692875  0.96268588  0.66007744    -0.79400
C698        C  0.46433083  0.48721147  0.75005814     0.83200
C699        C  0.36738410  0.93863104  0.83709725     0.82800
O700        O  0.37632366  0.93181759  0.69603427    -0.78300
C701        C  0.32637002  0.49613826  0.75003306     0.83600
O702        O  0.43856281  0.96398048  0.75005544    -0.78400
C703        C  0.43006258  0.55664788  0.82818912     0.83800
C704        C  0.43009805  0.55666059  0.67192915     0.84100
O705        O  0.44657037  0.55551574  0.70012395    -0.80800
C706        C  0.35785507  0.91921056  0.87409911     0.80400
N707        N  0.35737853  0.89286112  0.87464924    -0.77900
C708        C  0.34921991  0.87614747  0.91002758     0.82800
N709        N  0.34168321  0.88590038  0.94430698    -0.77900
C710        C  0.34223255  0.91204935  0.94410185     0.82900
N711        N  0.35035202  0.92864544  0.90902399    -0.79600
C712        C  0.17530369  0.54733977  0.12598748     0.80400
N713        N  0.18280195  0.53790376  0.09105959    -0.77900
C714        C  0.19091510  0.55449727  0.05597976     0.82800
N715        N  0.19146325  0.58064575  0.05577548    -0.77900
C716        C  0.18393138  0.59040122  0.09005706     0.82900
N717        N  0.17577879  0.57368943  0.12543841    -0.79600
O718        O  0.15685345  0.53472857  0.30405499    -0.78400
C719        C  0.16578059  0.52791858  0.16299046     0.82700
O720        O  0.06513541  0.95333216  0.25005008    -0.79500
O721        O  0.13019157  0.93007367  0.16766450    -0.80900
O722        O  0.19505851  0.97039469  0.28470223    -0.80700
O723        O  0.16625329  0.00386455  0.34000680    -0.79400
Zn724      Zn  0.13725105  0.01114741  0.25003433     1.55700
O725        O  0.19505108  0.97038013  0.21538387    -0.80800
Cd726      Cd  0.15627412  0.96932149  0.30043237     1.59700
Cd727      Cd  0.09483326  0.93864016  0.25005530     1.59600
O728        O  0.13022050  0.93008575  0.33241827    -0.80800
O729        O  0.13623481  0.97299543  0.25003717    -1.91300
Cd730      Cd  0.15626706  0.96931489  0.19963858     1.59900
O731        O  0.08663670  0.91104979  0.30000680    -0.80700
O732        O  0.16624879  0.00386249  0.16005926    -0.79400
C733        C  0.06885103  0.97933569  0.25003508     0.83200
C734        C  0.16578581  0.52792009  0.33707516     0.82800
O735        O  0.15685113  0.53472813  0.19601308    -0.78300
C736        C  0.20681891  0.97042816  0.25004403     0.83600
O737        O  0.09461425  0.00256673  0.25002940    -0.78400
C738        C  0.10312352  0.90990494  0.32817880     0.83800
C739        C  0.10309602  0.90989169  0.17192499     0.84100
O740        O  0.08662101  0.91103791  0.20011455    -0.80800
C741        C  0.17531685  0.54734269  0.37407463     0.80400
N742        N  0.17579754  0.57369426  0.37462318    -0.77900
C743        C  0.18396211  0.59041081  0.40999990     0.82800
N744        N  0.19150041  0.58065900  0.44427747    -0.77900
C745        C  0.19094704  0.55450828  0.44407330     0.82900
N746        N  0.18282164  0.53790907  0.40899797    -0.79600
C747        C  0.35054649  0.67695086  0.57757114     0.80400
N748        N  0.37665807  0.67703140  0.57810534    -0.77900
C749        C  0.37669402  0.65104217  0.57795734     0.82800
N750        N  0.35048645  0.62498403  0.57717950    -0.77900
C751        C  0.32433521  0.62477299  0.57661900     0.82900
N752        N  0.32445100  0.65077351  0.57688827    -0.79600
O753        O  0.03438201  0.64766163  0.61921157    -0.78400
C754        C  0.99967746  0.69870724  0.67508091     0.82700
O755        O  0.42790034  0.58320306  0.61361485    -0.79500
O756        O  0.42882511  0.67538266  0.58569164    -0.80900
O757        O  0.01744099  0.70027612  0.50573458    -0.80700
O758        O  0.04206039  0.65742095  0.55149275    -0.79400
Zn759      Zn  0.49516915  0.64519401  0.63036187     1.55700
O760        O  0.49393848  0.71800651  0.54336369    -0.80800
Cd761      Cd  0.00467578  0.65903067  0.53181915     1.59700
Cd762      Cd  0.43792746  0.61613628  0.57005268     1.59600
O763        O  0.48248851  0.62755281  0.48519356    -0.80800
O764        O  0.47796415  0.65159296  0.58052890    -1.91300
Cd765      Cd  0.47285220  0.68669888  0.58838662     1.59900
O766        O  0.43715053  0.59911450  0.51201187    -0.80700
O767        O  0.49008607  0.70677261  0.64440739    -0.79400
C768        C  0.44271677  0.58273901  0.64476222     0.83200
C769        C  0.05007247  0.65251480  0.58674540     0.82800
O770        O  0.00188062  0.67553507  0.67402596    -0.78300
C771        C  0.01069882  0.72015038  0.51335599     0.83600
O772        O  0.46810684  0.60469317  0.65391266    -0.78400
C773        C  0.45588505  0.60577300  0.48264822     0.83800
C774        C  0.40488641  0.65108184  0.57874728     0.84100
O775        O  0.40465496  0.62689265  0.57238181    -0.80800
O776        O  0.03135020  0.79103207  0.32607776    -0.78400
C777        C  0.48316970  0.81407263  0.41331964     0.82700
O778        O  0.10533652  0.88336790  0.38649062    -0.79500
O779        O  0.05073921  0.83901515  0.51489466    -0.80900
O780        O  0.03930500  0.74857448  0.45674365    -0.80700
O781        O  0.04313236  0.75978621  0.35569808    -0.79400
Zn782      Zn  0.03807072  0.82137596  0.36973362     1.55700
O783        O  0.01578539  0.76629686  0.49435183    -0.80800
Cd784      Cd  0.06038507  0.77987166  0.41170824     1.59700
Cd785      Cd  0.09531328  0.85042977  0.43004533     1.59600
O786        O  0.10441158  0.79118219  0.41438122    -0.80800
O787        O  0.05527423  0.81497781  0.41956644    -1.91300
Cd788      Cd  0.02855477  0.80754317  0.46826480     1.59900
O789        O  0.12858474  0.83967060  0.42770165    -0.80700
O790        O  0.49117605  0.80916326  0.44857536    -0.79400
C791        C  0.09051741  0.88382774  0.35534330     0.83200
C792        C  0.03354078  0.76785307  0.32502625     0.82800
O793        O  0.99886303  0.81892192  0.38085885    -0.78300
C794        C  0.02253653  0.74642744  0.48674206     0.83600
O795        O  0.06513183  0.86186997  0.34618962    -0.78400
C796        C  0.12835178  0.81548160  0.42132495     0.83800
C797        C  0.07734638  0.86078626  0.51744953     0.84100
O798        O  0.09608550  0.86744078  0.48809265    -0.80800
O799        O  0.16354821  0.96622300  0.61833026    -0.78400
C800        C  0.25037473  0.00515709  0.67465803     0.82700
O801        O  0.20517047  0.57288001  0.61311712    -0.79500
O802        O  0.29670708  0.57277221  0.58219119    -0.80900
O803        O  0.23299606  0.98338830  0.50465902    -0.80700
O804        O  0.16547460  0.95883472  0.55045217    -0.79400
Zn805      Zn  0.19977165  0.50621018  0.62917160     1.55700
O806        O  0.27425472  0.50656225  0.54278416    -0.80800
Cd807      Cd  0.20451799  0.99642181  0.53048262     1.59700
Cd808      Cd  0.22781006  0.56299105  0.56899635     1.59600
O809        O  0.19519896  0.51855817  0.48414649    -0.80800
O810        O  0.22355076  0.52328480  0.57911237    -1.91300
Cd811      Cd  0.26415157  0.52887645  0.58622579     1.59900
O812        O  0.21125269  0.56353174  0.51123810    -0.80700
O813        O  0.26778422  0.51420179  0.64355910    -0.79400
C814        C  0.18955584  0.55799502  0.64403812     0.83200
C815        C  0.15275619  0.95048140  0.58586104     0.82800
O816        O  0.22437467  0.00165222  0.67343051    -0.78300
C817        C  0.25952525  0.98961865  0.51288687     0.83600
O818        O  0.18544548  0.53247700  0.65284748    -0.78400
C819        C  0.19952140  0.54484728  0.48178722     0.83800
C820        C  0.29612365  0.59654903  0.57657933     0.84100
O821        O  0.27191785  0.59658109  0.57126650    -0.80800
O822        O  0.30883091  0.96493345  0.32662848    -0.78400
C823        C  0.38046508  0.51608119  0.41422271     0.82700
O824        O  0.32806727  0.89370436  0.38694118    -0.79500
O825        O  0.33800685  0.94800136  0.51592655    -0.80900
O826        O  0.25895866  0.95999450  0.45727645    -0.80700
O827        O  0.26542337  0.95236346  0.35650401    -0.79400
Zn828      Zn  0.33344544  0.96036798  0.37087883     1.55700
O829        O  0.30021837  0.98317777  0.49539372    -0.80800
Cd830      Cd  0.26906897  0.93768834  0.41383061     1.59700
Cd831      Cd  0.30542396  0.90358490  0.43105972     1.59600
O832        O  0.23652367  0.89379058  0.41786054    -0.80800
O833        O  0.30967279  0.94328699  0.42094206    -1.91300
Cd834      Cd  0.32869656  0.97014121  0.46958098     1.59900
O835        O  0.26132017  0.86998813  0.42877806    -0.80700
O836        O  0.36774565  0.50772250  0.44962970    -0.79400
C837        C  0.34366283  0.90858175  0.35600340     0.83200
C838        C  0.28282548  0.96141698  0.32540566     0.82800
O839        O  0.36966996  0.50034769  0.38174578    -0.78300
C840        C  0.27368712  0.97694241  0.48716984     0.83600
O841        O  0.34775995  0.93409383  0.34718380    -0.78400
C842        C  0.23711224  0.87001607  0.42346669     0.83800
C843        C  0.33369132  0.92171456  0.51828176     0.84100
O844        O  0.32197360  0.90303604  0.48882166    -0.80800
C845        C  0.18269400  0.78961351  0.42246952     0.80400
N846        N  0.15658134  0.78953176  0.42194555    -0.77900
C847        C  0.15654429  0.81552049  0.42210047     0.82800
N848        N  0.18275129  0.84157858  0.42287475    -0.77900
C849        C  0.20890310  0.84179087  0.42342519     0.83500
N850        N  0.20878898  0.81579127  0.42314970    -0.79600
O851        O  0.39597360  0.81263557  0.65560694    -0.78400
C852        C  0.34890784  0.84784916  0.58755455     0.82700
O853        O  0.29360367  0.73247237  0.64421304    -0.79500
O854        O  0.29981178  0.76739450  0.50608530    -0.80900
O855        O  0.40153130  0.78956787  0.51174583    -0.80700
O856        O  0.41740786  0.79527451  0.61313431    -0.79400
Zn857      Zn  0.35568317  0.80001249  0.63101037     1.55700
O858        O  0.37276621  0.80577381  0.48509629    -0.80800
Cd859      Cd  0.38456604  0.77284423  0.56949722     1.59700
Cd860      Cd  0.31379334  0.73602445  0.58787430     1.59600
O861        O  0.37443988  0.72913894  0.57150629    -0.80800
O862        O  0.34896937  0.77668085  0.58061273    -1.91300
Cd863      Cd  0.34140792  0.79588531  0.53208241     1.59900
O864        O  0.32582131  0.70401946  0.58488742    -0.80700
O865        O  0.34351488  0.83471874  0.55241691    -0.79400
C866        C  0.30150557  0.75012917  0.67497451     0.83200
C867        C  0.41776791  0.80940152  0.64546292     0.82800
O868        O  0.35401368  0.83721434  0.61998627    -0.78300
C869        C  0.39470035  0.80141878  0.48245498     0.83600
O870        O  0.32465321  0.77582971  0.67402762    -0.78400
C871        C  0.35031085  0.70489336  0.57802836     0.83800
C872        C  0.27990018  0.74050643  0.51326124     0.84100
O873        O  0.28224868  0.72564687  0.54271697    -0.80800
O874        O  0.20856196  0.69072034  0.32601933    -0.78400
C875        C  0.18431301  0.61871442  0.41251201     0.82700
O876        O  0.11582119  0.67129384  0.38691194    -0.79500
O877        O  0.16047819  0.66081235  0.51496151    -0.80900
O878        O  0.25099841  0.74092143  0.45732239    -0.80700
O879        O  0.23962412  0.73407618  0.35583018    -0.79400
Zn880      Zn  0.17753697  0.66654424  0.36904272     1.55700
O881        O  0.23343486  0.69917720  0.49396058    -0.80800
Cd882      Cd  0.21944624  0.73053786  0.41217195     1.59700
Cd883      Cd  0.14867007  0.69372136  0.43054508     1.59600
O884        O  0.20742055  0.76254519  0.41515598    -0.80800
O885        O  0.18426635  0.68988428  0.41943621    -1.91300
Cd886      Cd  0.19183438  0.67069001  0.46797263     1.59900
O887        O  0.15880091  0.73742637  0.42853090    -0.80700
O888        O  0.18971572  0.63185095  0.44764568    -0.79400
C889        C  0.11545062  0.65715610  0.35458973     0.83200
C890        C  0.23171331  0.71641803  0.32506942     0.82800
O891        O  0.17920478  0.62934553  0.38007870    -0.78300
C892        C  0.25334786  0.72606374  0.48677985     0.83600
O893        O  0.13724010  0.65391321  0.34444803    -0.78400
C894        C  0.18293046  0.76167150  0.42201131     0.83800
C895        C  0.13854122  0.66516386  0.51759736     0.84100
O896        O  0.13170649  0.67700638  0.48829956    -0.80800
C897        C  0.11117217  0.64145443  0.62545780     0.80400
N898        N  0.08607657  0.64346753  0.62493404    -0.77900
C899        C  0.07800322  0.65193968  0.58950491     0.82800
N900        N  0.09525679  0.65865765  0.55524287    -0.77900
C901        C  0.12023000  0.65678158  0.55539688     0.82900
N902        N  0.12796372  0.64775858  0.59040052    -0.79600
O903        O  0.12653112  0.64442937  0.69623931    -0.78400
C904        C  0.11892077  0.62983976  0.83792426     0.82700
O905        O  0.21726932  0.65255990  0.75003475    -0.79500
O906        O  0.14988693  0.56348758  0.83109348    -0.80900
O907        O  0.08457927  0.54344803  0.71525215    -0.80700
O908        O  0.11879407  0.60553587  0.65789916    -0.79400
Zn909      Zn  0.14612703  0.64029467  0.75002266     1.55700
O910        O  0.08456665  0.54345923  0.78476366    -0.80800
Cd911      Cd  0.12535712  0.57917042  0.69929140     1.59700
Cd912      Cd  0.18662249  0.60846233  0.75001931     1.59600
O913        O  0.14991249  0.56349359  0.66894239    -0.80800
O914        O  0.14579050  0.60255081  0.75001976    -1.91300
Cd915      Cd  0.12534182  0.57917470  0.80074249     1.59900
O916        O  0.19435455  0.58942875  0.69905185    -0.80700
O917        O  0.11876557  0.60553518  0.84213516    -0.79400
C918        C  0.21482672  0.67552640  0.75002386     0.83200
C919        C  0.11894588  0.62983856  0.66211228     0.82800
O920        O  0.12652082  0.64443544  0.80380157    -0.78300
C921        C  0.07220580  0.53255759  0.75000665     0.83600
O922        O  0.18966446  0.67421457  0.75001800    -0.78400
C923        C  0.17724442  0.57115589  0.67182063     0.83800
C924        C  0.17721162  0.57112431  0.82819944     0.84100
O925        O  0.19432655  0.58938738  0.80096228    -0.80800
C926        C  0.11114099  0.64145383  0.87458065     0.80400
N927        N  0.08603822  0.64345647  0.87511185    -0.77900
C928        C  0.07796314  0.65192456  0.91054635     0.82800
N929        N  0.09522080  0.65864717  0.94480428    -0.77900
C930        C  0.12019864  0.65677979  0.94464405     0.82900
N931        N  0.12793478  0.64776217  0.90963660    -0.79600
C932        C  0.35049070  0.67693820  0.92246799     0.80400
N933        N  0.32439481  0.65076021  0.92314245    -0.77900
C934        C  0.32427993  0.62475973  0.92341758     0.82800
N935        N  0.35043222  0.62497224  0.92287261    -0.77900
C936        C  0.37663964  0.65103057  0.92210398     0.82900
N937        N  0.37660275  0.67701909  0.92194940    -0.79600
O938        O  0.00182935  0.67551817  0.82607850    -0.78400
C939        C  0.05002919  0.65249588  0.91331921     0.82700
O940        O  0.42785179  0.58318908  0.88649741    -0.79500
O941        O  0.48244886  0.62754132  0.01489391    -0.80900
O942        O  0.49388810  0.71798306  0.95675010    -0.80700
O943        O  0.49004707  0.70676445  0.85570038    -0.79400
Zn944      Zn  0.49511925  0.64518030  0.86973777     1.55700
O945        O  0.01740610  0.70025839  0.99435588    -0.80800
Cd946      Cd  0.47280206  0.68668456  0.91171607     1.59700
Cd947      Cd  0.43787554  0.61612895  0.93004803     1.59600
O948        O  0.42877393  0.67537182  0.91439635    -0.80800
O949        O  0.47791579  0.65158010  0.91957005    -1.91300
Cd950      Cd  0.00463691  0.65901383  0.96826623     1.59900
O951        O  0.40460069  0.62688203  0.92770148    -0.80700
O952        O  0.04202023  0.65739995  0.94857709    -0.79400
C953        C  0.44267127  0.58272613  0.85535274     0.83200
C954        C  0.99963585  0.69869553  0.82502641     0.82800
O955        O  0.03433418  0.64764499  0.88085947    -0.78300
C956        C  0.01065672  0.72012881  0.98674757     0.83600
O957        O  0.46805840  0.60468209  0.84619989    -0.78400
C958        C  0.40483317  0.65107102  0.92133167     0.83800
C959        C  0.45583992  0.60577325  0.01745031     0.84100
O960        O  0.43710048  0.59912004  0.98809470    -0.80800
O961        O  0.99881473  0.81889316  0.11922771    -0.78400
C962        C  0.03350665  0.76784049  0.17508521     0.82700
O963        O  0.10529226  0.88334887  0.11361089    -0.79500
O964        O  0.10436940  0.79116998  0.08572110    -0.80900
O965        O  0.01574974  0.76627674  0.00574957    -0.80700
O966        O  0.49113531  0.80913256  0.05150928    -0.79400
Zn967      Zn  0.03802626  0.82135775  0.13037245     1.55700
O968        O  0.03926044  0.74854993  0.04336600    -0.80800
Cd969      Cd  0.02851751  0.80752120  0.03183409     1.59700
Cd970      Cd  0.09526518  0.85041210  0.07005716     1.59600
O971        O  0.05070056  0.83899310  0.98520412    -0.80800
O972        O  0.05522988  0.81495776  0.08054006    -1.91300
Cd973      Cd  0.06034115  0.77985234  0.08839840     1.59900
O974        O  0.09604279  0.86742671  0.01201177    -0.80700
O975        O  0.04309611  0.75977287  0.14441126    -0.79400
C976        C  0.09047834  0.88381230  0.14476183     0.83200
C977        C  0.48312396  0.81403954  0.08676214     0.82800
O978        O  0.03131087  0.79101675  0.17403354    -0.78300
C979        C  0.02249590  0.74640493  0.01336352     0.83600
O980        O  0.06509086  0.86185721  0.15391849    -0.78400
C981        C  0.07730546  0.86076843  0.98265191     0.83800
C982        C  0.12830759  0.81547150  0.07877812     0.84100
O983        O  0.12853737  0.83965842  0.07240251    -0.80800
O984        O  0.22434072  0.00160809  0.82661342    -0.78400
C985        C  0.15271766  0.95045488  0.91421605     0.82700
O986        O  0.20511139  0.57283598  0.88692122    -0.79500
O987        O  0.19516843  0.51854574  0.01590807    -0.80900
O988        O  0.27422144  0.50655073  0.95727075    -0.80700
O989        O  0.26775568  0.51418395  0.85648845    -0.79400
Zn990      Zn  0.19973195  0.50617192  0.87086766     1.55700
O991        O  0.23296276  0.98337652  0.99539535    -0.80800
Cd992      Cd  0.26411261  0.52885706  0.91381979     1.59700
Cd993      Cd  0.22775567  0.56295954  0.93104203     1.59600
O994        O  0.29665870  0.57275789  0.91785118    -0.80800
O995        O  0.22350797  0.52325722  0.92092901    -1.91300
Cd996      Cd  0.20448306  0.99640493  0.96957112     1.59900
O997        O  0.27186064  0.59655962  0.92876270    -0.80700
O998        O  0.16543950  0.95881564  0.94962103    -0.79400
C999        C  0.18951281  0.55795649  0.85598622     0.83200
C1000       C  0.25035411  0.50513252  0.82538888     0.82800
O1001       O  0.16350677  0.96618775  0.88173820    -0.78300
C1002       C  0.25949281  0.98960921  0.98717028     0.83600
O1003       O  0.18541230  0.53244225  0.84717008    -0.78400
C1004       C  0.29606977  0.59653286  0.92345520     0.83800
C1005       C  0.19948310  0.54483216  0.01826151     0.84100
O1006       O  0.21120267  0.56351020  0.98880203    -0.80800
O1007       O  0.36963586  0.50034684  0.11834560    -0.78400
C1008       C  0.28281514  0.96142005  0.17467863     0.82700
O1009       O  0.32801809  0.89369203  0.11315142    -0.79500
O1010       O  0.23648258  0.89379528  0.08223613    -0.80900
O1011       O  0.30018584  0.98317027  0.00467280    -0.80700
O1012       O  0.36770492  0.50772900  0.05046682    -0.79400
Zn1013     Zn  0.33342065  0.96036288  0.12919886     1.55700
O1014       O  0.25892928  0.95999910  0.04279761    -0.80800
Cd1015     Cd  0.32866350  0.97014166  0.03050713     1.59700
Cd1016     Cd  0.30537998  0.90358022  0.06903232     1.59600
O1017       O  0.33798465  0.94800260  0.98417562    -0.80800
O1018       O  0.30963787  0.94328602  0.07914215    -1.91300
Cd1019     Cd  0.26903697  0.93769461  0.08625213     1.59900
O1020       O  0.32193241  0.90303141  0.01127162    -0.80700
O1021       O  0.26541197  0.95238037  0.14358035    -0.79400
C1022       C  0.34363104  0.90857519  0.14407451     0.83200
C1023       C  0.38042504  0.51608607  0.08587400     0.82800
O1024       O  0.30881427  0.96492284  0.17345308    -0.78300
C1025       C  0.27365577  0.97693847  0.01289602     0.83600
O1026       O  0.34774364  0.93409440  0.15288448    -0.78400
C1027       C  0.33366157  0.92171318  0.98181795     0.83800
C1028       C  0.23706892  0.87001925  0.07662832     0.84100
O1029       O  0.26127557  0.86998992  0.07131202    -0.80800
C1030       C  0.18265659  0.78961435  0.07761123     0.80400
N1031       N  0.15654258  0.78952908  0.07814296    -0.77900
C1032       C  0.15650194  0.81551574  0.07799960     0.82800
N1033       N  0.18270688  0.84157640  0.07722883    -0.77900
C1034       C  0.20886048  0.84179248  0.07667147     0.82900
N1035       N  0.20874972  0.81579426  0.07693531    -0.79600
O1036       O  0.32463688  0.77584331  0.82602527    -0.78400
C1037       C  0.34887534  0.84784660  0.91253819     0.82700
O1038       O  0.41737022  0.79526264  0.88691569    -0.79500
O1039       O  0.37272717  0.80575016  0.01497099    -0.80900
O1040       O  0.28220296  0.72564470  0.95732428    -0.80700
O1041       O  0.29357632  0.73248725  0.85583384    -0.79400
Zn1042     Zn  0.35565753  0.80002131  0.86905769     1.55700
O1043       O  0.29977267  0.76738472  0.99397688    -0.80800
Cd1044     Cd  0.31375344  0.73602634  0.91217495     1.59700
Cd1045     Cd  0.38452572  0.77283478  0.93055260     1.59600
O1046       O  0.32576994  0.70401251  0.91515546    -0.80800
O1047       O  0.34893339  0.77667904  0.91944613    -1.91300
Cd1048     Cd  0.34137025  0.79587438  0.96798748     1.59900
O1049       O  0.37438893  0.72912649  0.92853274    -0.80700
O1050       O  0.34348178  0.83471277  0.94767226    -0.79400
C1051       C  0.41774365  0.80940963  0.85460317     0.83200
C1052       C  0.30148720  0.75014419  0.82507297     0.82800
O1053       O  0.35398017  0.83721501  0.88010138    -0.78300
C1054       C  0.27985719  0.74050018  0.98678898     0.83600
O1055       O  0.39595737  0.81265978  0.84446937    -0.78400
C1056       C  0.35025789  0.70488253  0.92201137     0.83800
C1057       C  0.39466086  0.80139395  0.01760680     0.84100
O1058       O  0.40149289  0.78954834  0.98830882    -0.80800
O1059       O  0.13722321  0.65392941  0.15560308    -0.78400
C1060       C  0.18427915  0.61870521  0.08754332     0.82700
O1061       O  0.23960058  0.73408427  0.14421479    -0.79500
O1062       O  0.23339434  0.69916899  0.00609157    -0.80900
O1063       O  0.13167989  0.67701294  0.01173754    -0.80700
O1064       O  0.11578985  0.67128501  0.11312155    -0.79400
Zn1065     Zn  0.17751427  0.66654808  0.13100686     1.55700
O1066       O  0.16044087  0.66080240  0.98508556    -0.80800
Cd1067     Cd  0.14863957  0.69372310  0.06949628     1.59700
Cd1068     Cd  0.21941082  0.73053911  0.08787981     1.59600
O1069       O  0.15876737  0.73742810  0.07152729    -0.80800
O1070       O  0.18423373  0.68988288  0.08061184    -1.91300
Cd1071     Cd  0.19179471  0.67067914  0.03207825     1.59900
O1072       O  0.20738592  0.76254748  0.08490819    -0.80700
O1073       O  0.18967703  0.63183862  0.05240785    -0.79400
C1074       C  0.23169720  0.71642595  0.17497349     0.83200
C1075       C  0.11542795  0.65716021  0.14545285     0.82800
O1076       O  0.17917516  0.62934108  0.11997664    -0.78300
C1077       C  0.13851001  0.66516297  0.98244376     0.83600
O1078       O  0.20854711  0.69072698  0.17402494    -0.78400
C1079       C  0.18289558  0.76167335  0.07805530     0.83800
C1080       C  0.25330510  0.72605733  0.01326895     0.84100
O1081       O  0.25095525  0.74091756  0.04272349    -0.80800
C1082       C  0.42206691  0.82513121  0.37459387     0.80400
N1083       N  0.44716598  0.82312211  0.37511928    -0.77900
C1084       C  0.45524082  0.81465229  0.41055142     0.82800
N1085       N  0.43798651  0.80793345  0.44481168    -0.77900
C1086       C  0.41301209  0.80980614  0.44465663     0.82900
N1087       N  0.40527576  0.81882569  0.40965205    -0.79600
O1088       O  0.40667630  0.82213590  0.19625623    -0.78400
C1089       C  0.41428300  0.83673925  0.33793618     0.82700
O1090       O  0.31592731  0.81398855  0.25002064    -0.79500
O1091       O  0.38329845  0.90307583  0.33108869    -0.80900
O1092       O  0.44860355  0.92310086  0.21524249    -0.80700
O1093       O  0.41438204  0.86101118  0.15790062    -0.79400
Zn1094     Zn  0.38707477  0.82626919  0.25003608     1.55700
O1095       O  0.44861872  0.92310686  0.28475399    -0.80800
Cd1096     Cd  0.40782340  0.88738010  0.19929343     1.59700
Cd1097     Cd  0.34656401  0.85808747  0.25003369     1.59600
O1098       O  0.38326884  0.90306104  0.16895678    -0.80800
O1099       O  0.38739848  0.86400632  0.25002739    -1.91300
Cd1100     Cd  0.40784743  0.88739145  0.30074297     1.59900
O1101       O  0.33883336  0.87714188  0.19908878    -0.80700
O1102       O  0.41443143  0.86104085  0.34214311    -0.79400
C1103       C  0.31837587  0.79102555  0.25002233     0.83200
C1104       C  0.41424721  0.83671762  0.16212221     0.82800
O1105       O  0.40668571  0.82214039  0.30381558    -0.78300
C1106       C  0.46097826  0.93399936  0.24999353     0.83600
O1107       O  0.34354058  0.79234249  0.25003292    -0.78400
C1108       C  0.35594105  0.89541085  0.17185230     0.83800
C1109       C  0.35596671  0.89541597  0.32821758     0.84100
O1110       O  0.33884832  0.87713603  0.30099828    -0.80800
C1111       C  0.42202369  0.82510142  0.12546971     0.80400
N1112       N  0.40523485  0.81879814  0.09041012    -0.77900
C1113       C  0.41296997  0.80977456  0.05540774     0.82800
N1114       N  0.43794216  0.80789719  0.05525682    -0.77900
C1115       C  0.45519361  0.81461476  0.08952095     0.82900
N1116       N  0.44711881  0.82308727  0.12494943    -0.79600
C1117       C  0.76137561  0.50006716  0.78648352     0.80400
N1118       N  0.74885004  0.50093315  0.75002139    -0.77900
C1119       C  0.76139105  0.50008520  0.71356359     0.82800
N1120       N  0.78642246  0.49824037  0.71364593    -0.77900
C1121       C  0.79869442  0.49680575  0.75002854     0.82900
N1122       N  0.78640797  0.49822342  0.78640821    -0.79600
C1123       C  0.77180003  0.46648117  0.21358428     0.80400
N1124       N  0.78433405  0.46562191  0.25004197    -0.77900
C1125       C  0.77180247  0.46647822  0.28650376     0.82800
N1126       N  0.74677057  0.46832349  0.28642786    -0.77900
C1127       C  0.73449158  0.46975238  0.25004697     0.82900
N1128       N  0.74676987  0.46832726  0.21366562    -0.79600
C1129       C  0.74880101  0.22666416  0.28652455     0.80400
N1130       N  0.73512457  0.21455086  0.25001998    -0.77900
C1131       C  0.74879274  0.22667126  0.21351405     0.82800
N1132       N  0.77652965  0.25092062  0.21357681    -0.77900
C1133       C  0.79084505  0.26244546  0.25001785     0.82900
N1134       N  0.77653791  0.25091212  0.28645978    -0.79600
C1135       C  0.78440708  0.23989279  0.78652622     0.80400
N1136       N  0.79808353  0.25200480  0.75002156    -0.77900
C1137       C  0.78441662  0.23988064  0.71351564     0.82800
N1138       N  0.75668113  0.21562917  0.71357841    -0.77900
C1139       C  0.74236618  0.20410472  0.75001948     0.82900
N1140       N  0.75667180  0.21564210  0.78646141    -0.79600
C1141       C  0.50671014  0.21569220  0.71358138     0.80400
N1142       N  0.51012899  0.24322131  0.71363983    -0.77900
C1143       C  0.51284119  0.25741608  0.75005326     0.82800
N1144       N  0.51010273  0.24321375  0.78646732    -0.77900
C1145       C  0.50668391  0.21568479  0.78652943     0.82900
N1146       N  0.50515061  0.20208823  0.75005647    -0.79600
C1147       C  0.52646481  0.25084631  0.21358317     0.80400
N1148       N  0.52801994  0.26444929  0.25005809    -0.77900
C1149       C  0.52648559  0.25085338  0.28653090     0.82800
N1150       N  0.52307030  0.22332582  0.28646884    -0.77900
C1151       C  0.52033628  0.20912440  0.25005450     0.82900
N1152       N  0.52304953  0.22331876  0.21364140    -0.79600
C1153       C  0.54241448  0.48234886  0.25001805     0.80400
N1154       N  0.51494624  0.45772324  0.25000902    -0.77900
C1155       C  0.99036530  0.46031940  0.24998466     0.82800
N1156       N  0.99312102  0.48749312  0.24997298    -0.77900
C1157       C  0.52047632  0.01208030  0.24998371     0.82900
N1158       N  0.54513707  0.00957223  0.25000728    -0.79600
C1159       C  0.99077153  0.48420267  0.75004437     0.80400
N1160       N  0.98804997  0.45697825  0.75003836    -0.77900
C1161       C  0.51271293  0.45447349  0.75001622     0.82800
N1162       N  0.54006951  0.47906590  0.75000001    -0.77900
C1163       C  0.54281789  0.00624100  0.75000648     0.82900
N1164       N  0.51823432  0.00883295  0.75003057    -0.79600
C1165       C  0.95205953  0.07847998  0.12531041     0.80400
N1166       N  0.96246520  0.09540546  0.09038306    -0.77900
C1167       C  0.94576267  0.08739534  0.05519976     0.82800
N1168       N  0.91905788  0.06196272  0.05472217    -0.77900
C1169       C  0.90865422  0.04453638  0.08886353     0.82900
N1170       N  0.92514120  0.05291787  0.12444671    -0.79600
O1171       O  0.96439528  0.09387525  0.19614520    -0.78400
C1172       C  0.97158816  0.08647222  0.33806970     0.82700
O1173       O  0.54733772  0.18478713  0.25003864    -0.79500
O1174       O  0.56963299  0.11802283  0.33034916    -0.80900
O1175       O  0.52448183  0.05329866  0.21525590    -0.80700
O1176       O  0.49593938  0.08665044  0.15786561    -0.79400
Zn1177     Zn  0.48821379  0.11354401  0.25004636     1.55700
O1178       O  0.52449992  0.05329680  0.28473801    -0.80800
Cd1179     Cd  0.52902863  0.09355405  0.19941273     1.59700
Cd1180     Cd  0.56115579  0.15463197  0.25003835     1.59600
O1181       O  0.56959640  0.11803588  0.16965926    -0.80800
O1182       O  0.52600275  0.11378529  0.25002880    -1.91300
Cd1183     Cd  0.52905126  0.09354768  0.30061966     1.59900
O1184       O  0.58843778  0.16238847  0.19960088    -0.80700
O1185       O  0.49597476  0.08663893  0.34219996    -0.79400
C1186       C  0.52165297  0.18195825  0.25004907     0.83200
C1187       C  0.97155235  0.08647870  0.16202156     0.82800
O1188       O  0.96442145  0.09387520  0.30396047    -0.78300
C1189       C  0.52331564  0.04114498  0.24999238     0.83600
O1190       O  0.49772995  0.15672105  0.25005474    -0.78400
C1191       C  0.58964440  0.14519593  0.17277840     0.83800
C1192       C  0.58966397  0.14519166  0.32726605     0.84100
O1193       O  0.58843578  0.16239406  0.30048291    -0.80800
C1194       C  0.95210403  0.07846971  0.37479078     0.80400
N1195       N  0.96251020  0.09539799  0.40971667    -0.77900
C1196       C  0.94580861  0.08738945  0.44490112     0.82800
N1197       N  0.91910360  0.06195605  0.44538008    -0.77900
C1198       C  0.90869899  0.04452822  0.41123842     0.82900
N1199       N  0.92518515  0.05290864  0.37565533    -0.79600
C1200       C  0.58113413  0.38808414  0.62530918     0.80400
N1201       N  0.57072854  0.37115498  0.59038383    -0.77900
C1202       C  0.58742765  0.37916514  0.55519712     0.82800
N1203       N  0.61412925  0.40460138  0.55471410    -0.77900
C1204       C  0.62453321  0.42203161  0.58885282     0.82900
N1205       N  0.60804944  0.41365036  0.62443938    -0.79600
O1206       O  0.56879716  0.37267524  0.69614078    -0.78400
C1207       C  0.56160476  0.38006270  0.83807381     0.82700
O1208       O  0.98584752  0.28176136  0.75005419    -0.79500
O1209       O  0.96356708  0.34853548  0.83036553    -0.80900
O1210       O  0.00870463  0.41325489  0.71528261    -0.80700
O1211       O  0.53725887  0.37991829  0.65787792    -0.79400
Zn1212     Zn  0.54497783  0.35300106  0.75004269     1.55700
O1213       O  0.00870364  0.41326075  0.78476427    -0.80800
Cd1214     Cd  0.00416696  0.37300426  0.69942946     1.59700
Cd1215     Cd  0.97203742  0.31192240  0.75005105     1.59600
O1216       O  0.96360110  0.34852015  0.66967378    -0.80800
O1217       O  0.00719285  0.35276771  0.75003796    -1.91300
Cd1218     Cd  0.00414824  0.37300587  0.80063340     1.59900
O1219       O  0.94475831  0.30416656  0.69961112    -0.80700
O1220       O  0.53722208  0.37990314  0.84220790    -0.79400
C1221       C  0.01153014  0.28458552  0.75004824     0.83200
C1222       C  0.56164316  0.38008321  0.66202454     0.82800
O1223       O  0.56876915  0.37266009  0.80396143    -0.78300
C1224       C  0.00987769  0.42541013  0.75002104     0.83600
O1225       O  0.53545557  0.30982090  0.75003983    -0.78400
C1226       C  0.94355357  0.32135983  0.67278928     0.83800
C1227       C  0.94353377  0.32136762  0.82728100     0.84100
O1228       O  0.94475882  0.30416449  0.80049515    -0.80800
C1229       C  0.58108962  0.38806210  0.87479236     0.80400
N1230       N  0.57068397  0.37113537  0.90971895    -0.77900
C1231       C  0.58738616  0.37914636  0.94490333     0.82800
N1232       N  0.61409031  0.40458086  0.94538115    -0.77900
C1233       C  0.62449322  0.42200695  0.91123836     0.82900
N1234       N  0.60800680  0.41362399  0.87565625    -0.79600
C1235       C  0.85787321  0.41920669  0.62601023     0.80400
N1236       N  0.85740232  0.39285939  0.62545795    -0.77900
C1237       C  0.84924970  0.37614791  0.59007604     0.82800
N1238       N  0.84171367  0.38590100  0.55579707    -0.77900
C1239       C  0.84225745  0.41204722  0.55600436     0.82900
N1240       N  0.85037090  0.42864094  0.59108492    -0.79600
O1241       O  0.87632607  0.43182452  0.80407950    -0.78400
C1242       C  0.86740010  0.43862901  0.66301201     0.82700
O1243       O  0.96804013  0.01321518  0.75006660    -0.79500
O1244       O  0.90299578  0.03647467  0.66766526    -0.80900
O1245       O  0.83811725  0.99616335  0.78469511    -0.80700
O1246       O  0.86691493  0.46268728  0.84002275    -0.79400
Zn1247     Zn  0.89592943  0.45540290  0.75005666     1.55700
O1248       O  0.83813409  0.99618088  0.71537667    -0.80800
Cd1249     Cd  0.87689708  0.99722989  0.80044325     1.59700
Cd1250     Cd  0.93834374  0.02790861  0.75006622     1.59600
O1251       O  0.90295695  0.03646658  0.83242892    -0.80800
O1252       O  0.89694117  0.99355424  0.75005246    -1.91300
Cd1253     Cd  0.87691586  0.99723787  0.69964763     1.59900
O1254       O  0.94654112  0.05549772  0.80001821    -0.80700
O1255       O  0.86693415  0.46268779  0.66007788    -0.79400
C1256       C  0.96432596  0.98721227  0.75005814     0.83200
C1257       C  0.86738844  0.43863236  0.83709608     0.82800
O1258       O  0.87632838  0.43181922  0.69603518    -0.78300
C1259       C  0.82636241  0.99613315  0.75003301     0.83600
O1260       O  0.93856730  0.46398022  0.75005545    -0.78400
C1261       C  0.93005545  0.05664470  0.82819030     0.83800
C1262       C  0.93009087  0.05665748  0.67192803     0.84100
O1263       O  0.94656274  0.05551306  0.70012383    -0.80800
C1264       C  0.85785787  0.41921072  0.87409688     0.80400
N1265       N  0.85738160  0.39286139  0.87464642    -0.77900
C1266       C  0.84922143  0.37614664  0.91002390     0.82800
N1267       N  0.84168295  0.38589836  0.94430267    -0.77900
C1268       C  0.84223202  0.41204710  0.94409815     0.82900
N1269       N  0.85035310  0.42864441  0.90902135    -0.79600
C1270       C  0.67530095  0.04733962  0.12598641     0.80400
N1271       N  0.68279835  0.03790258  0.09105862    -0.77900
C1272       C  0.69091146  0.05449559  0.05597839     0.82800
N1273       N  0.69146057  0.08064447  0.05577340    -0.77900
C1274       C  0.68392973  0.09040086  0.09005491     0.82900
N1275       N  0.67577714  0.07368966  0.12543670    -0.79600
O1276       O  0.65685140  0.03472979  0.30405547    -0.78400
C1277       C  0.66577817  0.02791922  0.16298996     0.82700
O1278       O  0.56513648  0.45333304  0.25005004    -0.79500
O1279       O  0.63019027  0.43007144  0.16766324    -0.80900
O1280       O  0.69505645  0.47038773  0.28470240    -0.80700
O1281       O  0.66625571  0.50386375  0.34000683    -0.79400
Zn1282     Zn  0.63725271  0.51114614  0.25003433     1.55700
O1283       O  0.69504897  0.47037302  0.21538390    -0.80800
Cd1284     Cd  0.65627398  0.46931881  0.30043324     1.59700
Cd1285     Cd  0.59483287  0.43863856  0.25005530     1.59600
O1286       O  0.63021899  0.43008354  0.33241957    -0.80800
O1287       O  0.63623519  0.47299318  0.25003715    -1.91300
Cd1288     Cd  0.65626714  0.46931235  0.19963771     1.59900
O1289       O  0.58663561  0.41104748  0.30000686    -0.80700
O1290       O  0.66625112  0.50386167  0.16005921    -0.79400
C1291       C  0.56885297  0.47933704  0.25003515     0.83200
C1292       C  0.66578334  0.02792076  0.33707564     0.82800
O1293       O  0.65684912  0.03472932  0.19601263    -0.78300
C1294       C  0.70681599  0.47041947  0.25004410     0.83600
O1295       O  0.59461656  0.50256747  0.25002963    -0.78400
C1296       C  0.60312212  0.40990255  0.32817936     0.83800
C1297       C  0.60309476  0.40988935  0.17192447     0.84100
O1298       O  0.58662011  0.41103576  0.20011445    -0.80800
C1299       C  0.67531413  0.04734250  0.37407572     0.80400
N1300       N  0.67579594  0.07369452  0.37462489    -0.77900
C1301       C  0.68396053  0.09041045  0.41000205     0.82800
N1302       N  0.69149769  0.08065765  0.44427955    -0.77900
C1303       C  0.69094339  0.05450651  0.44407471     0.82900
N1304       N  0.68281808  0.03790787  0.40899888    -0.79600
C1305       C  0.85054371  0.17694853  0.57756519     0.80400
N1306       N  0.87665506  0.17702853  0.57809893    -0.77900
C1307       C  0.87669046  0.15103909  0.57795197     0.82800
N1308       N  0.85048269  0.12498117  0.57717582    -0.77900
C1309       C  0.82433162  0.12477063  0.57661589     0.82900
N1310       N  0.82444798  0.15077143  0.57688399    -0.79600
O1311       O  0.53437833  0.14765692  0.61921179    -0.78400
C1312       C  0.49967330  0.19870211  0.67508082     0.82700
O1313       O  0.92789480  0.08319960  0.61361205    -0.79500
O1314       O  0.92882120  0.17537892  0.58568949    -0.80900
O1315       O  0.51743875  0.20027356  0.50573610    -0.80700
O1316       O  0.54205869  0.15741937  0.55149399    -0.79400
Zn1317     Zn  0.99516490  0.14518931  0.63036091     1.55700
O1318       O  0.99393519  0.21800331  0.54336425    -0.80800
Cd1319     Cd  0.50467392  0.15902839  0.53182010     1.59700
Cd1320     Cd  0.93792401  0.11613315  0.57004963     1.59600
O1321       O  0.98248912  0.12755167  0.48519356    -0.80800
O1322       O  0.97796064  0.15158938  0.58052821    -1.91300
Cd1323     Cd  0.97284821  0.18669502  0.58838631     1.59900
O1324       O  0.93715014  0.09911325  0.51200904    -0.80700
O1325       O  0.99008177  0.20676785  0.64440774    -0.79400
C1326       C  0.94271055  0.08273538  0.64476019     0.83200
C1327       C  0.55007001  0.15251207  0.58674627     0.82800
O1328       O  0.50187631  0.17552991  0.67402524    -0.78300
C1329       C  0.51069614  0.22014751  0.51335717     0.83600
O1330       O  0.96810095  0.10468896  0.65391068    -0.78400
C1331       C  0.95588575  0.10577221  0.48264669     0.83800
C1332       C  0.90488270  0.15107843  0.57874276     0.84100
O1333       O  0.90465136  0.12688944  0.57237616    -0.80800
O1334       O  0.53134946  0.29102913  0.32607825    -0.78400
C1335       C  0.98317057  0.31407252  0.41332140     0.82700
O1336       O  0.60533548  0.38336492  0.38649038    -0.79500
O1337       O  0.55074205  0.33901356  0.51489669    -0.80900
O1338       O  0.53930210  0.24857098  0.45674460    -0.80700
O1339       O  0.54313141  0.25978315  0.35569864    -0.79400
Zn1340     Zn  0.53807000  0.32137301  0.36973429     1.55700
O1341       O  0.51578403  0.26629466  0.49435366    -0.80800
Cd1342     Cd  0.56038304  0.27986789  0.41170949     1.59700
Cd1343     Cd  0.59531249  0.35042664  0.43004499     1.59600
O1344       O  0.60440948  0.29117805  0.41438432    -0.80800
O1345       O  0.55527320  0.31497469  0.41956745    -1.91300
Cd1346     Cd  0.52855495  0.30754155  0.46826695     1.59900
O1347       O  0.62858322  0.33966693  0.42770163    -0.80700
O1348       O  0.99117718  0.30916386  0.44857755    -0.79400
C1349       C  0.59051610  0.38382505  0.35534359     0.83200
C1350       C  0.53354021  0.26785024  0.32502660     0.82800
O1351       O  0.49886296  0.31891982  0.38086015    -0.78300
C1352       C  0.52253417  0.24642457  0.48674336     0.83600
O1353       O  0.56513051  0.36186725  0.34619010    -0.78400
C1354       C  0.62834984  0.31547756  0.42132710     0.83800
C1355       C  0.57734940  0.36078465  0.51745025     0.84100
O1356       O  0.59608744  0.36743895  0.48809208    -0.80800
O1357       O  0.66355320  0.46622250  0.61833057    -0.78400
C1358       C  0.75038151  0.50516154  0.67465769     0.82700
O1359       O  0.70516729  0.07287900  0.61311776    -0.79500
O1360       O  0.79670294  0.07277012  0.58219301    -0.80900
O1361       O  0.73299817  0.48338929  0.50465865    -0.80700
O1362       O  0.66547772  0.45883550  0.55045168    -0.79400
Zn1363     Zn  0.69976708  0.00620900  0.62917167     1.55700
O1364       O  0.77425206  0.00656145  0.54278542    -0.80800
Cd1365     Cd  0.70452087  0.49642330  0.53048230     1.59700
Cd1366     Cd  0.72780613  0.06298923  0.56899697     1.59600
O1367       O  0.69519579  0.01855629  0.48414681    -0.80800
O1368       O  0.72354675  0.02328315  0.57911293    -1.91300
Cd1369     Cd  0.76414717  0.02887439  0.58622734     1.59900
O1370       O  0.71124803  0.06352924  0.51123960    -0.80700
O1371       O  0.76777824  0.01419834  0.64356031    -0.79400
C1372       C  0.68955256  0.05799422  0.64403878     0.83200
C1373       C  0.65276044  0.45048115  0.58586105     0.82800
O1374       O  0.72438114  0.50165606  0.67343061    -0.78300
C1375       C  0.75952716  0.48961903  0.51288630     0.83600
O1376       O  0.68544186  0.03247615  0.65284830    -0.78400
C1377       C  0.69951746  0.04484512  0.48178830     0.83800
C1378       C  0.79611986  0.09654686  0.57657848     0.84100
O1379       O  0.77191416  0.09657903  0.57126463    -0.80800
O1380       O  0.80882779  0.46492543  0.32663061    -0.78400
C1381       C  0.88046631  0.01608330  0.41421905     0.82700
O1382       O  0.82806571  0.39370011  0.38694334    -0.79500
O1383       O  0.83800544  0.44799812  0.51592982    -0.80900
O1384       O  0.75895890  0.45999300  0.45727745    -0.80700
O1385       O  0.76541949  0.45235328  0.35650549    -0.79400
Zn1386     Zn  0.83344405  0.46036435  0.37088292     1.55700
O1387       O  0.80021852  0.48317529  0.49539519    -0.80800
Cd1388     Cd  0.76906718  0.43768321  0.41383496     1.59700
Cd1389     Cd  0.80542238  0.40358020  0.43106340     1.59600
O1390       O  0.73652158  0.39378611  0.41787007    -0.80800
O1391       O  0.80967136  0.44328255  0.42094591    -1.91300
Cd1392     Cd  0.82869600  0.47013780  0.46958379     1.59900
O1393       O  0.76131825  0.36998332  0.42878269    -0.80700
O1394       O  0.86774586  0.00772550  0.44962558    -0.79400
C1395       C  0.84366268  0.40857898  0.35600724     0.83200
C1396       C  0.78282131  0.46140627  0.32540674     0.82800
O1397       O  0.86967210  0.00034954  0.38174230    -0.78300
C1398       C  0.77368785  0.47694121  0.48717038     0.83600
O1399       O  0.84776056  0.43409162  0.34718987    -0.78400
C1400       C  0.73711016  0.37001150  0.42347419     0.83800
C1401       C  0.83369004  0.42171145  0.51828550     0.84100
O1402       O  0.82197242  0.40303250  0.48882573    -0.80800
C1403       C  0.68269170  0.28960933  0.42247204     0.80400
N1404       N  0.65657906  0.28952753  0.42194746    -0.77900
C1405       C  0.65654215  0.31551627  0.42210409     0.82800
N1406       N  0.68274917  0.34157430  0.42288095    -0.77900
C1407       C  0.70890092  0.34178647  0.42343223     0.83500
N1408       N  0.70878667  0.31578693  0.42315469    -0.79600
O1409       O  0.89597725  0.31263416  0.65560570    -0.78400
C1410       C  0.84890976  0.34784865  0.58755759     0.82700
O1411       O  0.79360529  0.23247251  0.64421218    -0.79500
O1412       O  0.79981219  0.26739511  0.50608493    -0.80900
O1413       O  0.90153176  0.28956824  0.51174476    -0.80700
O1414       O  0.91740940  0.29527106  0.61313288    -0.79400
Zn1415     Zn  0.85568638  0.30001195  0.63101040     1.55700
O1416       O  0.87276724  0.30577526  0.48509624    -0.80800
Cd1417     Cd  0.88456655  0.27284281  0.56949513     1.59700
Cd1418     Cd  0.81379402  0.23602458  0.58787304     1.59600
O1419       O  0.87443835  0.22913670  0.57150048    -0.80800
O1420       O  0.84897075  0.27668056  0.58061181    -1.91300
Cd1421     Cd  0.84140861  0.29588543  0.53208246     1.59900
O1422       O  0.82582012  0.20401845  0.58488407    -0.80700
O1423       O  0.84351551  0.33471805  0.55242001    -0.79400
C1424       C  0.80150830  0.25012877  0.67497436     0.83200
C1425       C  0.91777074  0.30939882  0.64546147     0.82800
O1426       O  0.85401711  0.33721422  0.61998851    -0.78300
C1427       C  0.89470133  0.30142009  0.48245469     0.83600
O1428       O  0.82465665  0.27582883  0.67402788    -0.78400
C1429       C  0.85030907  0.20489151  0.57802305     0.83800
C1430       C  0.77990042  0.24050716  0.51326109     0.84100
O1431       O  0.78224892  0.22564766  0.54271691    -0.80800
O1432       O  0.70856477  0.19071988  0.32601954    -0.78400
C1433       C  0.68431262  0.11871440  0.41251437     0.82700
O1434       O  0.61582134  0.17129025  0.38691175    -0.79500
O1435       O  0.66047807  0.16081311  0.51496372    -0.80900
O1436       O  0.75099847  0.24092154  0.45732202    -0.80700
O1437       O  0.73962549  0.23407621  0.35582982    -0.79400
Zn1438     Zn  0.67753895  0.16654436  0.36904272     1.55700
O1439       O  0.73343495  0.19917772  0.49396123    -0.80800
Cd1440     Cd  0.71944626  0.23053667  0.41217133     1.59700
Cd1441     Cd  0.64866924  0.19371821  0.43054533     1.59600
O1442       O  0.70741869  0.26254216  0.41515580    -0.80800
O1443       O  0.68426663  0.18988318  0.41943671    -1.91300
Cd1444     Cd  0.69183404  0.17068993  0.46797450     1.59900
O1445       O  0.65879906  0.23742248  0.42853153    -0.80700
O1446       O  0.68971461  0.13185049  0.44764830    -0.79400
C1447       C  0.61545207  0.15715392  0.35458874     0.83200
C1448       C  0.73171572  0.21641783  0.32506943     0.82800
O1449       O  0.67920591  0.12934610  0.38008049    -0.78300
C1450       C  0.75334795  0.22606417  0.48677997     0.83600
O1451       O  0.63724248  0.15391272  0.34444655    -0.78400
C1452       C  0.68292838  0.26166776  0.42201204     0.83800
C1453       C  0.63854008  0.16516318  0.51759836     0.84100
O1454       O  0.63170447  0.17700383  0.48829925    -0.80800
C1455       C  0.61117217  0.14145595  0.62545958     0.80400
N1456       N  0.58607568  0.14346746  0.62493545    -0.77900
C1457       C  0.57800149  0.15193825  0.58950602     0.82800
N1458       N  0.59525497  0.15865624  0.55524365    -0.77900
C1459       C  0.62022899  0.15678146  0.55539810     0.82900
N1460       N  0.62796355  0.14775999  0.59040222    -0.79600
O1461       O  0.62653308  0.14443211  0.69623994    -0.78400
C1462       C  0.61892113  0.12984171  0.83792289     0.82700
O1463       O  0.71727000  0.15255959  0.75003501    -0.79500
O1464       O  0.64988410  0.06348746  0.83109259    -0.80900
O1465       O  0.58457602  0.04345019  0.71525224    -0.80700
O1466       O  0.61879303  0.10553711  0.65790078    -0.79400
Zn1467     Zn  0.64612882  0.14029701  0.75002267     1.55700
O1468       O  0.58456351  0.04346133  0.78476355    -0.80800
Cd1469     Cd  0.62535524  0.07917122  0.69929233     1.59700
Cd1470     Cd  0.68662125  0.10846248  0.75001931     1.59600
O1471       O  0.64990964  0.06349324  0.66894356    -0.80800
O1472       O  0.64578976  0.10255200  0.75001977    -1.91300
Cd1473     Cd  0.62533994  0.07917552  0.80074156     1.59900
O1474       O  0.69435218  0.08942844  0.69905186    -0.80700
O1475       O  0.61876456  0.10553647  0.84213358    -0.79400
C1476       C  0.71482866  0.17552680  0.75002396     0.83200
C1477       C  0.61894622  0.12984048  0.66211365     0.82800
O1478       O  0.62652269  0.14443815  0.80380092    -0.78300
C1479       C  0.57220212  0.03256024  0.75000665     0.83600
O1480       O  0.68966689  0.17421604  0.75001798    -0.78400
C1481       C  0.67724158  0.07115543  0.67182122     0.83800
C1482       C  0.67720873  0.07112385  0.82819888     0.84100
O1483       O  0.69432405  0.08938682  0.80096200    -0.80800
C1484       C  0.61114102  0.14145544  0.87457890     0.80400
N1485       N  0.58603735  0.14345640  0.87511040    -0.77900
C1486       C  0.57796139  0.15192314  0.91054536     0.82800
N1487       N  0.59521904  0.15864580  0.94480341    -0.77900
C1488       C  0.62019769  0.15677982  0.94464282     0.82900
N1489       N  0.62793471  0.14776369  0.90963478    -0.79600
C1490       C  0.85048803  0.17693589  0.92247404     0.80400
N1491       N  0.82439174  0.15075814  0.92314680    -0.77900
C1492       C  0.82427632  0.12475734  0.92342064     0.82800
N1493       N  0.85042837  0.12496930  0.92287629    -0.77900
C1494       C  0.87663609  0.15102741  0.92210922     0.82900
N1495       N  0.87659968  0.17701616  0.92195565    -0.79600
O1496       O  0.50182503  0.17551306  0.82607934    -0.78400
C1497       C  0.55002676  0.15249323  0.91331824     0.82700
O1498       O  0.92784619  0.08318547  0.88650025    -0.79500
O1499       O  0.98244942  0.12754012  0.01489359    -0.80900
O1500       O  0.99388493  0.21797987  0.95674952    -0.80700
O1501       O  0.99004279  0.20675973  0.85570006    -0.79400
Zn1502     Zn  0.99511507  0.14517575  0.86973873     1.55700
O1503       O  0.51740387  0.20025579  0.99435437    -0.80800
Cd1504     Cd  0.97279823  0.18668072  0.91171638     1.59700
Cd1505     Cd  0.93787208  0.11612580  0.93005105     1.59600
O1506       O  0.92877009  0.17536812  0.91439824    -0.80800
O1507       O  0.97791228  0.15157651  0.91957068    -1.91300
Cd1508     Cd  0.50463518  0.15901155  0.96826501     1.59900
O1509       O  0.90459718  0.12687887  0.92770708    -0.80700
O1510       O  0.54201859  0.15739852  0.94857582    -0.79400
C1511       C  0.94266499  0.08272242  0.85535474     0.83200
C1512       C  0.49963164  0.19869043  0.82502656     0.82800
O1513       O  0.53433057  0.14764046  0.88085925    -0.78300
C1514       C  0.51065404  0.22012591  0.98674646     0.83600
O1515       O  0.96805238  0.10467787  0.84620174    -0.78400
C1516       C  0.90482951  0.15106765  0.92133599     0.83800
C1517       C  0.95584056  0.10577231  0.01745158     0.84100
O1518       O  0.93710004  0.09911861  0.98809731    -0.80800
O1519       O  0.49881460  0.31889091  0.11922640    -0.78400
C1520       C  0.53350606  0.26783772  0.17508491     0.82700
O1521       O  0.60529130  0.38334572  0.11361139    -0.79500
O1522       O  0.60436735  0.29116587  0.08571801    -0.80900
O1523       O  0.51574842  0.26627454  0.00574775    -0.80700
O1524       O  0.99113636  0.30913319  0.05150704    -0.79400
Zn1525     Zn  0.53802552  0.32135479  0.13037158     1.55700
O1526       O  0.53925763  0.24854648  0.04336509    -0.80800
Cd1527     Cd  0.52851768  0.30751958  0.03183191     1.59700
Cd1528     Cd  0.59526439  0.35040895  0.07005749     1.59600
O1529       O  0.55070331  0.33899155  0.98520209    -0.80800
O1530       O  0.55522883  0.31495466  0.08053888    -1.91300
Cd1531     Cd  0.56033936  0.27984875  0.08839715     1.59900
O1532       O  0.59604468  0.36742484  0.01201233    -0.80700
O1533       O  0.54309522  0.25976994  0.14441073    -0.79400
C1534       C  0.59047713  0.38380958  0.14476168     0.83200
C1535       C  0.98312479  0.31403936  0.08676037     0.82800
O1536       O  0.53131004  0.29101383  0.17403312    -0.78300
C1537       C  0.52249360  0.24640206  0.01336227     0.83600
O1538       O  0.56508955  0.36185450  0.15391814    -0.78400
C1539       C  0.57730847  0.36076683  0.98265117     0.83800
C1540       C  0.62830567  0.31546750  0.07877601     0.84100
O1541       O  0.62853582  0.33965475  0.07240253    -0.80800
O1542       O  0.72434719  0.50161191  0.82661344    -0.78400
C1543       C  0.65272193  0.45045462  0.91421605     0.82700
O1544       O  0.70510822  0.07283508  0.88692059    -0.79500
O1545       O  0.69516542  0.01854395  0.01590806    -0.80900
O1546       O  0.77421872  0.00654993  0.95726936    -0.80700
O1547       O  0.76774975  0.01418050  0.85648713    -0.79400
Zn1548     Zn  0.69972738  0.00617073  0.87086737     1.55700
O1549       O  0.73296487  0.48337749  0.99539562    -0.80800
Cd1550     Cd  0.76410821  0.02885499  0.91381798     1.59700
Cd1551     Cd  0.72775181  0.06295785  0.93104140     1.59600
O1552       O  0.79665440  0.07275579  0.91784929    -0.80800
O1553       O  0.72350397  0.02325551  0.92092844    -1.91300
Cd1554     Cd  0.70448593  0.49640641  0.96957117     1.59900
O1555       O  0.77185688  0.09655766  0.92876427    -0.80700
O1556       O  0.66544264  0.45881633  0.94962154    -0.79400
C1557       C  0.68950948  0.05795573  0.85598566     0.83200
C1558       C  0.75034737  0.00512807  0.82538845     0.82800
O1559       O  0.66351177  0.46618734  0.88173802    -0.78300
C1560       C  0.75949471  0.48960953  0.98717084     0.83600
O1561       O  0.68540864  0.03244144  0.84716940    -0.78400
C1562       C  0.79606584  0.09653073  0.92345587     0.83800
C1563       C  0.69947922  0.04483005  0.01826055     0.84100
O1564       O  0.71119801  0.06350770  0.98880056    -0.80800
O1565       O  0.86963796  0.00034861  0.11834899    -0.78400
C1566       C  0.78281098  0.46140934  0.17467764     0.82700
O1567       O  0.82801657  0.39368781  0.11314930    -0.79500
O1568       O  0.73648049  0.39379089  0.08222657    -0.80900
O1569       O  0.80018586  0.48316755  0.00467135    -0.80700
O1570       O  0.86770518  0.00773205  0.05047085    -0.79400
Zn1571     Zn  0.83341927  0.46035927  0.12919457     1.55700
O1572       O  0.75892939  0.45999754  0.04279666    -0.80800
Cd1573     Cd  0.82866285  0.47013807  0.03050432     1.59700
Cd1574     Cd  0.80537839  0.40357551  0.06902864     1.59600
O1575       O  0.83798320  0.44799929  0.98417226    -0.80800
O1576       O  0.80963640  0.44328152  0.07913827    -1.91300
Cd1577     Cd  0.76903517  0.43768949  0.08624780     1.59900
O1578       O  0.82193128  0.40302790  0.01126762    -0.80700
O1579       O  0.76540811  0.45237014  0.14357900    -0.79400
C1580       C  0.84363088  0.40857241  0.14407078     0.83200
C1581       C  0.88042627  0.01608814  0.08587765     0.82800
O1582       O  0.80881119  0.46491486  0.17345099    -0.78300
C1583       C  0.77365638  0.47693712  0.01289549     0.83600
O1584       O  0.84774422  0.43409217  0.15287855    -0.78400
C1585       C  0.83366030  0.42171003  0.98181420     0.83800
C1586       C  0.73706684  0.37001475  0.07662082     0.84100
O1587       O  0.76127359  0.36998512  0.07130742    -0.80800
C1588       C  0.68265430  0.28961023  0.07760848     0.80400
N1589       N  0.65654034  0.28952492  0.07814084    -0.77900
C1590       C  0.65649979  0.31551156  0.07799612     0.82800
N1591       N  0.68270478  0.34157220  0.07722291    -0.77900
C1592       C  0.70885827  0.34178817  0.07666450     0.82900
N1593       N  0.70874745  0.31579001  0.07693026    -0.79600
O1594       O  0.82464048  0.27584252  0.82602478    -0.78400
C1595       C  0.84887739  0.34784613  0.91253495     0.82700
O1596       O  0.91737177  0.29525923  0.88691721    -0.79500
O1597       O  0.87272806  0.30575144  0.01497120    -0.80900
O1598       O  0.78220318  0.22564546  0.95732444    -0.80700
O1599       O  0.79357801  0.23248755  0.85583460    -0.79400
Zn1600     Zn  0.85566074  0.30002076  0.86905766     1.55700
O1601       O  0.79977306  0.26738536  0.99397717    -0.80800
Cd1602     Cd  0.81375397  0.23602647  0.91217620     1.59700
Cd1603     Cd  0.88452623  0.27283337  0.93055472     1.59600
O1604       O  0.82576884  0.20401155  0.91515880    -0.80800
O1605       O  0.84893474  0.27667870  0.91944698    -1.91300
Cd1606     Cd  0.84137094  0.29587451  0.96798721     1.59900
O1607       O  0.87438750  0.22912433  0.92853856    -0.80700
O1608       O  0.84348251  0.33471216  0.94766910    -0.79400
C1609       C  0.91774638  0.30940675  0.85460454     0.83200
C1610       C  0.80149006  0.25014388  0.82507297     0.82800
O1611       O  0.85398377  0.33721491  0.88009912    -0.78300
C1612       C  0.77985739  0.24050089  0.98678909     0.83600
O1613       O  0.89596088  0.31265815  0.84447054    -0.78400
C1614       C  0.85025609  0.20488070  0.92201670     0.83800
C1615       C  0.89466177  0.30139521  0.01760722     0.84100
O1616       O  0.90149331  0.28954869  0.98830998    -0.80800
O1617       O  0.63722573  0.15392910  0.15560459    -0.78400
C1618       C  0.68427875  0.11870516  0.08754104     0.82700
O1619       O  0.73960191  0.23408422  0.14421516    -0.79500
O1620       O  0.73339441  0.19916949  0.00609068    -0.80900
O1621       O  0.63167787  0.17701039  0.01173788    -0.80700
O1622       O  0.61578999  0.17128141  0.11312178    -0.79400
Zn1623     Zn  0.67751626  0.16654819  0.13100687     1.55700
O1624       O  0.66044088  0.16080335  0.98508317    -0.80800
Cd1625     Cd  0.64863876  0.19371994  0.06949627     1.59700
Cd1626     Cd  0.71941084  0.23053794  0.08788066     1.59600
O1627       O  0.65876557  0.23742421  0.07152694    -0.80800
O1628       O  0.68423408  0.18988186  0.08061148    -1.91300
Cd1629     Cd  0.69179452  0.17067909  0.03207638     1.59900
O1630       O  0.70738417  0.26254455  0.08490816    -0.80700
O1631       O  0.68967598  0.13183821  0.05240534    -0.79400
C1632       C  0.73169952  0.21642572  0.17497351     0.83200
C1633       C  0.61542946  0.15715808  0.14545389     0.82800
O1634       O  0.67917630  0.12934157  0.11997498    -0.78300
C1635       C  0.63850899  0.16516238  0.98244261     0.83600
O1636       O  0.70854978  0.19072649  0.17402475    -0.78400
C1637       C  0.68289360  0.26166968  0.07805449     0.83800
C1638       C  0.75330513  0.22605777  0.01326878     0.84100
O1639       O  0.75095521  0.24091751  0.04272392    -0.80800
C1640       C  0.92206976  0.32513386  0.37459453     0.80400
N1641       N  0.94716837  0.32312396  0.37512050    -0.77900
C1642       C  0.95524241  0.31465356  0.41055288     0.82800
N1643       N  0.93798778  0.30793490  0.44481261    -0.77900
C1644       C  0.91301369  0.30980824  0.44465698     0.82900
N1645       N  0.90527815  0.31882838  0.40965227    -0.79600
O1646       O  0.90667977  0.32213846  0.19625592    -0.78400
C1647       C  0.91428644  0.33674206  0.33793641     0.82700
O1648       O  0.81592999  0.31398878  0.25002065    -0.79500
O1649       O  0.88329966  0.40307599  0.33109062    -0.80900
O1650       O  0.94860573  0.42310404  0.21524244    -0.80700
O1651       O  0.91438543  0.36101388  0.15790067    -0.79400
Zn1652     Zn  0.88707814  0.32627130  0.25003608     1.55700
O1653       O  0.94862105  0.42310991  0.28475402    -0.80800
Cd1654     Cd  0.90782596  0.38738242  0.19929317     1.59700
Cd1655     Cd  0.84656630  0.35808821  0.25003370     1.59600
O1656       O  0.88326995  0.40306098  0.16895487    -0.80800
O1657       O  0.88740128  0.36400829  0.25002742    -1.91300
Cd1658     Cd  0.90785009  0.38739395  0.30074324     1.59900
O1659       O  0.83883470  0.37714110  0.19908734    -0.80700
O1660       O  0.91443504  0.36104377  0.34214301    -0.79400
C1661       C  0.81837885  0.29102595  0.25002235     0.83200
C1662       C  0.91425061  0.33672031  0.16212200     0.82800
O1663       O  0.90668915  0.32214301  0.30381593    -0.78300
C1664       C  0.96098047  0.43400253  0.24999351     0.83600
O1665       O  0.84354387  0.29234347  0.25003293    -0.78400
C1666       C  0.85594178  0.39540948  0.17184976     0.83800
C1667       C  0.85596749  0.39541470  0.32822019     0.84100
O1668       O  0.83884973  0.37713530  0.30099982    -0.80800
C1669       C  0.92202655  0.32510400  0.12546908     0.80400
N1670       N  0.90523732  0.31880085  0.09040993    -0.77900
C1671       C  0.91297162  0.30977667  0.05540740     0.82800
N1672       N  0.93794346  0.30789865  0.05525587    -0.77900
C1673       C  0.95519521  0.31461599  0.08951954     0.82900
N1674       N  0.94712118  0.32308897  0.12494828    -0.79600
C1675       C  0.76136775  0.00006112  0.78648344     0.80400
N1676       N  0.74884215  0.00092713  0.75002138    -0.77900
C1677       C  0.76138317  0.00007917  0.71356361     0.82800
N1678       N  0.78641451  0.99823428  0.71364593    -0.77900
C1679       C  0.79868637  0.99679957  0.75002847     0.82900
N1680       N  0.78640003  0.99821733  0.78640814    -0.79600
C1681       C  0.77180541  0.96649450  0.21358431     0.80400
N1682       N  0.78433954  0.96563564  0.25004192    -0.77900
C1683       C  0.77180788  0.96649157  0.28650364     0.82800
N1684       N  0.74677543  0.96833592  0.28642786    -0.77900
C1685       C  0.73449622  0.96976441  0.25004693     0.82900
N1686       N  0.74677473  0.96833970  0.21366559    -0.79600
C1687       C  0.74879817  0.72666433  0.28652448     0.80400
N1688       N  0.73512160  0.71455113  0.25001999    -0.77900
C1689       C  0.74878988  0.72667150  0.21351412     0.82800
N1690       N  0.77652682  0.75092066  0.21357682    -0.77900
C1691       C  0.79084210  0.76244545  0.25001782     0.82900
N1692       N  0.77653507  0.75091218  0.28645969    -0.79600
C1693       C  0.78440397  0.73989338  0.78652632     0.80400
N1694       N  0.79808031  0.75200557  0.75002163    -0.77900
C1695       C  0.78441364  0.73988123  0.71351567     0.82800
N1696       N  0.75667837  0.71562941  0.71357839    -0.77900
C1697       C  0.74236349  0.70410485  0.75001944     0.82900
N1698       N  0.75666893  0.71564233  0.78646141    -0.79600
C1699       C  0.50671349  0.71569743  0.71358138     0.80400
N1700       N  0.51012962  0.74322552  0.71363982    -0.77900
C1701       C  0.51284032  0.75741975  0.75005328     0.82800
N1702       N  0.51010330  0.74321791  0.78646733    -0.77900
C1703       C  0.50668726  0.71569001  0.78652941     0.82900
N1704       N  0.50515529  0.70209406  0.75005644    -0.79600
C1705       C  0.52646468  0.75084880  0.21358320     0.80400
N1706       N  0.52802029  0.76445194  0.25005807    -0.77900
C1707       C  0.52648547  0.75085589  0.28653084     0.82800
N1708       N  0.52306910  0.72332788  0.28646886    -0.77900
C1709       C  0.52033451  0.70912621  0.25005450     0.82900
N1710       N  0.52304832  0.72332079  0.21364140    -0.79600
C1711       C  0.54241217  0.98234653  0.25001804     0.80400
N1712       N  0.51494409  0.95772056  0.25000902    -0.77900
C1713       C  0.99036294  0.96031642  0.24998466     0.82800
N1714       N  0.99311834  0.98749002  0.24997299    -0.77900
C1715       C  0.52047906  0.51208327  0.24998371     0.82900
N1716       N  0.54513979  0.50957493  0.25000729    -0.79600
C1717       C  0.99076741  0.98420471  0.75004437     0.80400
N1718       N  0.98804639  0.95698054  0.75003836    -0.77900
C1719       C  0.51270957  0.95447632  0.75001621     0.82800
N1720       N  0.54006593  0.97906885  0.75000002    -0.77900
C1721       C  0.54282180  0.50623822  0.75000646     0.82900
N1722       N  0.51823856  0.50883056  0.75003056    -0.79600
C1723       C  0.95205683  0.57847964  0.12530932     0.80400
N1724       N  0.96246268  0.59540552  0.09038228    -0.77900
C1725       C  0.94576102  0.58739540  0.05519821     0.82800
N1726       N  0.91905668  0.56196197  0.05471930    -0.77900
C1727       C  0.90865275  0.54453506  0.08886049     0.82900
N1728       N  0.92513901  0.55291686  0.12444433    -0.79600
O1729       O  0.96439262  0.59387599  0.19614428    -0.78400
C1730       C  0.97158526  0.58647209  0.33807029     0.82700
O1731       O  0.54733549  0.68478846  0.25003865    -0.79500
O1732       O  0.56963078  0.61802522  0.33035107    -0.80900
O1733       O  0.52448292  0.55330117  0.21525591    -0.80700
O1734       O  0.49593647  0.58665006  0.15786570    -0.79400
Zn1735     Zn  0.48821121  0.61354502  0.25004637     1.55700
O1736       O  0.52450100  0.55329931  0.28473802    -0.80800
Cd1737     Cd  0.52902685  0.59355549  0.19941242     1.59700
Cd1738     Cd  0.56115393  0.65463359  0.25003835     1.59600
O1739       O  0.56959416  0.61803835  0.16965748    -0.80800
O1740       O  0.52600070  0.61378663  0.25002898    -1.91300
Cd1741     Cd  0.52904947  0.59354910  0.30062026     1.59900
O1742       O  0.58843629  0.66239050  0.19960057    -0.80700
O1743       O  0.49597175  0.58663837  0.34219996    -0.79400
C1744       C  0.52165080  0.68195976  0.25004908     0.83200
C1745       C  0.97154946  0.58647859  0.16202103     0.82800
O1746       O  0.96441885  0.59387597  0.30396143    -0.78300
C1747       C  0.52331781  0.54114789  0.24999238     0.83600
O1748       O  0.49772765  0.65672258  0.25005474    -0.78400
C1749       C  0.58964252  0.64519825  0.17277715     0.83800
C1750       C  0.58966212  0.64519391  0.32726732     0.84100
O1751       O  0.58843421  0.66239597  0.30048321    -0.80800
C1752       C  0.95210128  0.57846938  0.37479198     0.80400
N1753       N  0.96250760  0.59539810  0.40971752    -0.77900
C1754       C  0.94580690  0.58738947  0.44490285     0.82800
N1755       N  0.91910234  0.56195526  0.44538297    -0.77900
C1756       C  0.90869746  0.54452689  0.41124154     0.82900
N1757       N  0.92518299  0.55290758  0.37565777    -0.79600
C1758       C  0.58112899  0.88808587  0.62530800     0.80400
N1759       N  0.57072363  0.87115660  0.59038265    -0.77900
C1760       C  0.58742335  0.87916658  0.55519637     0.82800
N1761       N  0.61412501  0.90460253  0.55471389    -0.77900
C1762       C  0.62452861  0.92203268  0.58885236     0.82900
N1763       N  0.60804448  0.91365180  0.62443861    -0.79600
O1764       O  0.56879292  0.87267818  0.69614017    -0.78400
C1765       C  0.56159972  0.88006456  0.83807479     0.82700
O1766       O  0.98584515  0.78176387  0.75005445    -0.79500
O1767       O  0.96356310  0.84853899  0.83036332    -0.80900
O1768       O  0.00870145  0.91325803  0.71528260    -0.80700
O1769       O  0.53725390  0.87992010  0.65787720    -0.79400
Zn1770     Zn  0.54497426  0.85300426  0.75004267     1.55700
O1771       O  0.00870047  0.91326389  0.78476424    -0.80800
Cd1772     Cd  0.00416310  0.87300723  0.69942981     1.59700
Cd1773     Cd  0.97203494  0.81192512  0.75005108     1.59600
O1774       O  0.96359705  0.84852353  0.66967591    -0.80800
O1775       O  0.00718936  0.85277069  0.75003789    -1.91300
Cd1776     Cd  0.00414438  0.87300884  0.80063281     1.59900
O1777       O  0.94475595  0.80416954  0.69961160    -0.80700
O1778       O  0.53721694  0.87990479  0.84220877    -0.79400
C1779       C  0.01152806  0.78458869  0.75004831     0.83200
C1780       C  0.56163827  0.88008519  0.66202361     0.82800
O1781       O  0.56876469  0.87266288  0.80396207    -0.78300
C1782       C  0.00987465  0.92541325  0.75002103     0.83600
O1783       O  0.53545294  0.80982444  0.75003980    -0.78400
C1784       C  0.94355034  0.82136296  0.67279091     0.83800
C1785       C  0.94353059  0.82137087  0.82727945     0.84100
O1786       O  0.94475641  0.80416752  0.80049478    -0.80800
C1787       C  0.58108443  0.88806373  0.87479349     0.80400
N1788       N  0.57067902  0.87113692  0.90972012    -0.77900
C1789       C  0.58738182  0.87914782  0.94490409     0.82800
N1790       N  0.61408601  0.90458202  0.94538136    -0.77900
C1791       C  0.62448857  0.92200801  0.91123875     0.82900
N1792       N  0.60800178  0.91362539  0.87565700    -0.79600
C1793       C  0.85787033  0.91920643  0.62600807     0.80400
N1794       N  0.85739921  0.89285908  0.62545530    -0.77900
C1795       C  0.84924813  0.87614866  0.59007241     0.82800
N1796       N  0.84171383  0.88590290  0.55579294    -0.77900
C1797       C  0.84225795  0.91204939  0.55600067     0.82900
N1798       N  0.85036985  0.92864192  0.59108230    -0.79600
O1799       O  0.87632167  0.93182309  0.80408066    -0.78400
C1800       C  0.86739559  0.93862758  0.66301100     0.82700
O1801       O  0.96804603  0.51321482  0.75006661    -0.79500
O1802       O  0.90300300  0.53647766  0.66766645    -0.80900
O1803       O  0.83812469  0.49616791  0.78469512    -0.80700
O1804       O  0.86690956  0.96268542  0.84002330    -0.79400
Zn1805     Zn  0.89592413  0.95540120  0.75005668     1.55700
O1806       O  0.83814141  0.49618525  0.71537678    -0.80800
Cd1807     Cd  0.87690387  0.49723267  0.80044297     1.59700
Cd1808     Cd  0.93835115  0.52791049  0.75006620     1.59600
O1809       O  0.90296411  0.53646961  0.83242771    -0.80800
O1810       O  0.89694796  0.49355676  0.75005238    -1.91300
Cd1811     Cd  0.87692264  0.49724065  0.69964769     1.59900
O1812       O  0.94654863  0.55550045  0.80001794    -0.80700
O1813       O  0.86692876  0.96268588  0.66007744    -0.79400
C1814       C  0.96433083  0.48721146  0.75005814     0.83200
C1815       C  0.86738408  0.93863103  0.83709724     0.82800
O1816       O  0.87632368  0.93181759  0.69603427    -0.78300
C1817       C  0.82637004  0.49613826  0.75003306     0.83600
O1818       O  0.93856282  0.96398048  0.75005544    -0.78400
C1819       C  0.93006258  0.55664788  0.82818913     0.83800
C1820       C  0.93009807  0.55666059  0.67192915     0.84100
O1821       O  0.94657039  0.55551574  0.70012396    -0.80800
C1822       C  0.85785497  0.91921054  0.87409910     0.80400
N1823       N  0.85737839  0.89286108  0.87464921    -0.77900
C1824       C  0.84921989  0.87614747  0.91002758     0.82800
N1825       N  0.84168322  0.88590040  0.94430700    -0.77900
C1826       C  0.84223254  0.91204935  0.94410187     0.82900
N1827       N  0.85035200  0.92864545  0.90902400    -0.79600
C1828       C  0.67530369  0.54733974  0.12598746     0.80400
N1829       N  0.68280197  0.53790373  0.09105958    -0.77900
C1830       C  0.69091512  0.55449727  0.05597975     0.82800
N1831       N  0.69146327  0.58064574  0.05577550    -0.77900
C1832       C  0.68393137  0.59040120  0.09005706     0.82900
N1833       N  0.67577874  0.57368936  0.12543839    -0.79600
O1834       O  0.65685347  0.53472857  0.30405499    -0.78400
C1835       C  0.66578061  0.52791855  0.16299045     0.82700
O1836       O  0.56513544  0.95333217  0.25005007    -0.79500
O1837       O  0.63019156  0.93007367  0.16766450    -0.80900
O1838       O  0.69505847  0.97039469  0.28470223    -0.80700
O1839       O  0.66625329  0.00386455  0.34000680    -0.79400
Zn1840     Zn  0.63725107  0.01114741  0.25003433     1.55700
O1841       O  0.69505110  0.97038013  0.21538387    -0.80800
Cd1842     Cd  0.65627399  0.96932149  0.30043237     1.59700
Cd1843     Cd  0.59483327  0.93864016  0.25005530     1.59600
O1844       O  0.63022041  0.93008573  0.33241822    -0.80800
O1845       O  0.63623480  0.97299543  0.25003714    -1.91300
Cd1846     Cd  0.65626707  0.96931488  0.19963858     1.59900
O1847       O  0.58663658  0.91104981  0.30000686    -0.80700
O1848       O  0.66624880  0.00386249  0.16005926    -0.79400
C1849       C  0.56885105  0.97933569  0.25003508     0.83200
C1850       C  0.66578583  0.52792009  0.33707516     0.82800
O1851       O  0.65685114  0.53472813  0.19601308    -0.78300
C1852       C  0.70681890  0.97042816  0.25004404     0.83600
O1853       O  0.59461427  0.00256673  0.25002940    -0.78400
C1854       C  0.60312342  0.90990495  0.32817884     0.83800
C1855       C  0.60309597  0.90989169  0.17192499     0.84100
O1856       O  0.58662099  0.91103790  0.20011455    -0.80800
C1857       C  0.67531687  0.54734269  0.37407462     0.80400
N1858       N  0.67579756  0.57369427  0.37462315    -0.77900
C1859       C  0.68396208  0.59041080  0.40999990     0.82800
N1860       N  0.69150031  0.58065897  0.44427749    -0.77900
C1861       C  0.69094701  0.55450828  0.44407331     0.82900
N1862       N  0.68282167  0.53790909  0.40899796    -0.79600
C1863       C  0.85054647  0.67695085  0.57757114     0.80400
N1864       N  0.87665806  0.67703139  0.57810534    -0.77900
C1865       C  0.87669397  0.65104215  0.57795733     0.82800
N1866       N  0.85048643  0.62498402  0.57717950    -0.77900
C1867       C  0.82433519  0.62477299  0.57661899     0.82900
N1868       N  0.82445100  0.65077351  0.57688827    -0.79600
O1869       O  0.53438203  0.64766163  0.61921157    -0.78400
C1870       C  0.49967745  0.69870725  0.67508091     0.82700
O1871       O  0.92790036  0.58320306  0.61361485    -0.79500
O1872       O  0.92882501  0.67538268  0.58569164    -0.80900
O1873       O  0.51744098  0.70027614  0.50573458    -0.80700
O1874       O  0.54206036  0.65742095  0.55149274    -0.79400
Zn1875     Zn  0.99516915  0.64519401  0.63036186     1.55700
O1876       O  0.99393848  0.71800651  0.54336368    -0.80800
Cd1877     Cd  0.50467565  0.65903068  0.53181914     1.59700
Cd1878     Cd  0.93792746  0.61613628  0.57005268     1.59600
O1879       O  0.98248852  0.62755279  0.48519356    -0.80800
O1880       O  0.97796410  0.65159299  0.58052888    -1.91300
Cd1881     Cd  0.97285205  0.68669888  0.58838662     1.59900
O1882       O  0.93715054  0.59911450  0.51201189    -0.80700
O1883       O  0.99008606  0.70677261  0.64440739    -0.79400
C1884       C  0.94271679  0.58273901  0.64476222     0.83200
C1885       C  0.55007246  0.65251480  0.58674538     0.82800
O1886       O  0.50188063  0.67553508  0.67402596    -0.78300
C1887       C  0.51069882  0.72015037  0.51335596     0.83600
O1888       O  0.96810686  0.60469317  0.65391266    -0.78400
C1889       C  0.95588507  0.60577302  0.48264820     0.83800
C1890       C  0.90488636  0.65108183  0.57874727     0.84100
O1891       O  0.90465496  0.62689266  0.57238181    -0.80800
O1892       O  0.53135022  0.79103207  0.32607777    -0.78400
C1893       C  0.98316973  0.81407263  0.41331965     0.82700
O1894       O  0.60533649  0.88336791  0.38649060    -0.79500
O1895       O  0.55073921  0.83901516  0.51489465    -0.80900
O1896       O  0.53930498  0.74857448  0.45674364    -0.80700
O1897       O  0.54313237  0.75978621  0.35569808    -0.79400
Zn1898     Zn  0.53807073  0.82137596  0.36973362     1.55700
O1899       O  0.51578535  0.76629686  0.49435182    -0.80800
Cd1900     Cd  0.56038508  0.77987166  0.41170825     1.59700
Cd1901     Cd  0.59531329  0.85042977  0.43004533     1.59600
O1902       O  0.60441160  0.79118219  0.41438122    -0.80800
O1903       O  0.55527421  0.81497780  0.41956647    -1.91300
Cd1904     Cd  0.52855463  0.80754317  0.46826480     1.59900
O1905       O  0.62858476  0.83967060  0.42770165    -0.80700
O1906       O  0.99117611  0.80916326  0.44857537    -0.79400
C1907       C  0.59051734  0.88382775  0.35534331     0.83200
C1908       C  0.53354080  0.76785308  0.32502625     0.82800
O1909       O  0.49886303  0.81892192  0.38085885    -0.78300
C1910       C  0.52253648  0.74642744  0.48674206     0.83600
O1911       O  0.56513180  0.86186996  0.34618962    -0.78400
C1912       C  0.62835180  0.81548160  0.42132495     0.83800
C1913       C  0.57734639  0.86078626  0.51744952     0.84100
O1914       O  0.59608551  0.86744078  0.48809264    -0.80800
O1915       O  0.66354822  0.96622300  0.61833026    -0.78400
C1916       C  0.75037471  0.00515709  0.67465803     0.82700
O1917       O  0.70517047  0.57287997  0.61311714    -0.79500
O1918       O  0.79670709  0.57277221  0.58219119    -0.80900
O1919       O  0.73299605  0.98338827  0.50465902    -0.80700
O1920       O  0.66547461  0.95883472  0.55045217    -0.79400
Zn1921     Zn  0.69977166  0.50621017  0.62917160     1.55700
O1922       O  0.77425474  0.50656225  0.54278416    -0.80800
Cd1923     Cd  0.70451801  0.99642181  0.53048261     1.59700
Cd1924     Cd  0.72781007  0.56299105  0.56899634     1.59600
O1925       O  0.69519886  0.51855816  0.48414652    -0.80800
O1926       O  0.72355077  0.52328480  0.57911237    -1.91300
Cd1927     Cd  0.76415158  0.52887645  0.58622579     1.59900
O1928       O  0.71125258  0.56353174  0.51123813    -0.80700
O1929       O  0.76778423  0.51420179  0.64355910    -0.79400
C1930       C  0.68955583  0.55799497  0.64403812     0.83200
C1931       C  0.65275620  0.95048140  0.58586104     0.82800
O1932       O  0.72437464  0.00165223  0.67343052    -0.78300
C1933       C  0.75952522  0.98961858  0.51288688     0.83600
O1934       O  0.68544547  0.53247696  0.65284749    -0.78400
C1935       C  0.69952132  0.54484728  0.48178724     0.83800
C1936       C  0.79612366  0.59654903  0.57657933     0.84100
O1937       O  0.77191786  0.59658109  0.57126649    -0.80800
O1938       O  0.80883093  0.96493345  0.32662847    -0.78400
C1939       C  0.88046507  0.51608119  0.41422269     0.82700
O1940       O  0.82806728  0.89370436  0.38694118    -0.79500
O1941       O  0.83800683  0.94800135  0.51592655    -0.80900
O1942       O  0.75895867  0.95999448  0.45727644    -0.80700
O1943       O  0.76542339  0.95236346  0.35650400    -0.79400
Zn1944     Zn  0.83344546  0.96036798  0.37087883     1.55700
O1945       O  0.80021838  0.98317777  0.49539372    -0.80800
Cd1946     Cd  0.76906899  0.93768834  0.41383061     1.59700
Cd1947     Cd  0.80542398  0.90358490  0.43105971     1.59600
O1948       O  0.73652369  0.89379058  0.41786054    -0.80800
O1949       O  0.80967280  0.94328699  0.42094206    -1.91300
Cd1950     Cd  0.82869657  0.97014121  0.46958097     1.59900
O1951       O  0.76132018  0.86998813  0.42877806    -0.80700
O1952       O  0.86774565  0.50772249  0.44962970    -0.79400
C1953       C  0.84366285  0.90858175  0.35600340     0.83200
C1954       C  0.78282549  0.96141698  0.32540566     0.82800
O1955       O  0.86966997  0.50034768  0.38174578    -0.78300
C1956       C  0.77368713  0.97694238  0.48716986     0.83600
O1957       O  0.84775997  0.93409382  0.34718380    -0.78400
C1958       C  0.73711226  0.87001607  0.42346669     0.83800
C1959       C  0.83369128  0.92171456  0.51828178     0.84100
O1960       O  0.82197357  0.90303604  0.48882167    -0.80800
C1961       C  0.68269398  0.78961350  0.42246953     0.80400
N1962       N  0.65658135  0.78953176  0.42194555    -0.77900
C1963       C  0.65654430  0.81552050  0.42210047     0.82800
N1964       N  0.68275131  0.84157858  0.42287475    -0.77900
C1965       C  0.70890311  0.84179087  0.42342519     0.83500
N1966       N  0.70878899  0.81579127  0.42314970    -0.79600
O1967       O  0.89597361  0.81263558  0.65560693    -0.78400
C1968       C  0.84890776  0.84784914  0.58755455     0.82700
O1969       O  0.79360369  0.73247237  0.64421304    -0.79500
O1970       O  0.79981180  0.76739450  0.50608530    -0.80900
O1971       O  0.90153132  0.78956787  0.51174583    -0.80700
O1972       O  0.91740788  0.79527451  0.61313431    -0.79400
Zn1973     Zn  0.85568317  0.80001249  0.63101037     1.55700
O1974       O  0.87276623  0.80577381  0.48509630    -0.80800
Cd1975     Cd  0.88456605  0.77284423  0.56949722     1.59700
Cd1976     Cd  0.81379336  0.73602445  0.58787430     1.59600
O1977       O  0.87443989  0.72913894  0.57150629    -0.80800
O1978       O  0.84896938  0.77668085  0.58061273    -1.91300
Cd1979     Cd  0.84140793  0.79588532  0.53208241     1.59900
O1980       O  0.82582132  0.70401946  0.58488742    -0.80700
O1981       O  0.84351477  0.83471872  0.55241691    -0.79400
C1982       C  0.80150558  0.75012917  0.67497452     0.83200
C1983       C  0.91776792  0.80940152  0.64546292     0.82800
O1984       O  0.85401357  0.83721431  0.61998627    -0.78300
C1985       C  0.89470037  0.80141878  0.48245498     0.83600
O1986       O  0.82465323  0.77582971  0.67402763    -0.78400
C1987       C  0.85031088  0.70489336  0.57802836     0.83800
C1988       C  0.77990019  0.74050643  0.51326124     0.84100
O1989       O  0.78224869  0.72564687  0.54271697    -0.80800
O1990       O  0.70856197  0.69072034  0.32601934    -0.78400
C1991       C  0.68431301  0.61871442  0.41251199     0.82700
O1992       O  0.61582121  0.67129384  0.38691194    -0.79500
O1993       O  0.66047821  0.66081235  0.51496151    -0.80900
O1994       O  0.75099843  0.74092144  0.45732239    -0.80700
O1995       O  0.73962414  0.73407618  0.35583019    -0.79400
Zn1996     Zn  0.67753699  0.66654424  0.36904272     1.55700
O1997       O  0.73343487  0.69917720  0.49396058    -0.80800
Cd1998     Cd  0.71944625  0.73053786  0.41217195     1.59700
Cd1999     Cd  0.64867008  0.69372136  0.43054508     1.59600
O2000       O  0.70742051  0.76254518  0.41515596    -0.80800
O2001       O  0.68426637  0.68988428  0.41943621    -1.91300
Cd2002     Cd  0.69183440  0.67069001  0.46797263     1.59900
O2003       O  0.65880088  0.73742636  0.42853092    -0.80700
O2004       O  0.68971574  0.63185095  0.44764567    -0.79400
C2005       C  0.61545063  0.65715611  0.35458973     0.83200
C2006       C  0.73171333  0.71641803  0.32506943     0.82800
O2007       O  0.67920480  0.62934554  0.38007869    -0.78300
C2008       C  0.75334787  0.72606374  0.48677985     0.83600
O2009       O  0.63724011  0.65391321  0.34444803    -0.78400
C2010       C  0.68293044  0.76167150  0.42201131     0.83800
C2011       C  0.63854123  0.66516386  0.51759736     0.84100
O2012       O  0.63170651  0.67700638  0.48829956    -0.80800
C2013       C  0.61117217  0.64145443  0.62545781     0.80400
N2014       N  0.58607657  0.64346753  0.62493403    -0.77900
C2015       C  0.57800323  0.65193968  0.58950489     0.82800
N2016       N  0.59525680  0.65865765  0.55524286    -0.77900
C2017       C  0.62023001  0.65678158  0.55539689     0.82900
N2018       N  0.62796372  0.64775858  0.59040054    -0.79600
O2019       O  0.62653111  0.64442937  0.69623931    -0.78400
C2020       C  0.61892075  0.62983976  0.83792425     0.82700
O2021       O  0.71726933  0.65255991  0.75003474    -0.79500
O2022       O  0.64988694  0.56348758  0.83109348    -0.80900
O2023       O  0.58457926  0.54344803  0.71525215    -0.80700
O2024       O  0.61879406  0.60553587  0.65789916    -0.79400
Zn2025     Zn  0.64612703  0.64029467  0.75002266     1.55700
O2026       O  0.58456664  0.54345923  0.78476366    -0.80800
Cd2027     Cd  0.62535713  0.57917042  0.69929140     1.59700
Cd2028     Cd  0.68662251  0.60846233  0.75001931     1.59600
O2029       O  0.64991249  0.56349358  0.66894239    -0.80800
O2030       O  0.64579051  0.60255080  0.75001977    -1.91300
Cd2031     Cd  0.62534183  0.57917470  0.80074249     1.59900
O2032       O  0.69435456  0.58942873  0.69905183    -0.80700
O2033       O  0.61876561  0.60553521  0.84213515    -0.79400
C2034       C  0.71482673  0.67552640  0.75002385     0.83200
C2035       C  0.61894584  0.62983855  0.66211229     0.82800
O2036       O  0.62652070  0.64443541  0.80380154    -0.78300
C2037       C  0.57220578  0.53255761  0.75000665     0.83600
O2038       O  0.68966447  0.67421456  0.75001801    -0.78400
C2039       C  0.67724442  0.57115587  0.67182064     0.83800
C2040       C  0.67721164  0.57112431  0.82819944     0.84100
O2041       O  0.69432657  0.58938738  0.80096228    -0.80800
C2042       C  0.61114099  0.64145383  0.87458066     0.80400
N2043       N  0.58603824  0.64345647  0.87511186    -0.77900
C2044       C  0.57796315  0.65192456  0.91054635     0.82800
N2045       N  0.59522081  0.65864717  0.94480428    -0.77900
C2046       C  0.62019866  0.65677979  0.94464405     0.82900
N2047       N  0.62793479  0.64776217  0.90963660    -0.79600
C2048       C  0.85049071  0.67693820  0.92246799     0.80400
N2049       N  0.82439482  0.65076021  0.92314245    -0.77900
C2050       C  0.82427994  0.62475973  0.92341758     0.82800
N2051       N  0.85043223  0.62497224  0.92287261    -0.77900
C2052       C  0.87663965  0.65103057  0.92210398     0.82900
N2053       N  0.87660276  0.67701909  0.92194940    -0.79600
O2054       O  0.50182935  0.67551817  0.82607850    -0.78400
C2055       C  0.55002920  0.65249588  0.91331921     0.82700
O2056       O  0.92785178  0.58318905  0.88649745    -0.79500
O2057       O  0.98244888  0.62754132  0.01489391    -0.80900
O2058       O  0.99388810  0.71798307  0.95675010    -0.80700
O2059       O  0.99004709  0.70676446  0.85570038    -0.79400
Zn2060     Zn  0.99511925  0.64518030  0.86973777     1.55700
O2061       O  0.51740611  0.70025840  0.99435587    -0.80800
Cd2062     Cd  0.97280208  0.68668456  0.91171607     1.59700
Cd2063     Cd  0.93787555  0.61612895  0.93004803     1.59600
O2064       O  0.92877395  0.67537182  0.91439635    -0.80800
O2065       O  0.97791580  0.65158010  0.91957005    -1.91300
Cd2066     Cd  0.50463692  0.65901383  0.96826623     1.59900
O2067       O  0.90460071  0.62688203  0.92770148    -0.80700
O2068       O  0.54202025  0.65739995  0.94857709    -0.79400
C2069       C  0.94267124  0.58272613  0.85535273     0.83200
C2070       C  0.49963584  0.69869554  0.82502641     0.82800
O2071       O  0.53433419  0.64764500  0.88085948    -0.78300
C2072       C  0.51065672  0.72012881  0.98674756     0.83600
O2073       O  0.96805833  0.60468213  0.84619984    -0.78400
C2074       C  0.90483318  0.65107102  0.92133167     0.83800
C2075       C  0.95583993  0.60577324  0.01745031     0.84100
O2076       O  0.93710050  0.59912004  0.98809470    -0.80800
O2077       O  0.49881472  0.81889316  0.11922771    -0.78400
C2078       C  0.53350666  0.76784050  0.17508521     0.82700
O2079       O  0.60529227  0.88334888  0.11361091    -0.79500
O2080       O  0.60436942  0.79116998  0.08572109    -0.80900
O2081       O  0.51574974  0.76627676  0.00574950    -0.80700
O2082       O  0.99113532  0.80913257  0.05150928    -0.79400
Zn2083     Zn  0.53802627  0.82135775  0.13037244     1.55700
O2084       O  0.53926035  0.74854991  0.04336606    -0.80800
Cd2085     Cd  0.52851751  0.80752120  0.03183409     1.59700
Cd2086     Cd  0.59526520  0.85041210  0.07005716     1.59600
O2087       O  0.55070049  0.83899315  0.98520414    -0.80800
O2088       O  0.55522990  0.81495777  0.08054006    -1.91300
Cd2089     Cd  0.56034117  0.77985234  0.08839840     1.59900
O2090       O  0.59604276  0.86742667  0.01201175    -0.80700
O2091       O  0.54309613  0.75977287  0.14441127    -0.79400
C2092       C  0.59047835  0.88381232  0.14476181     0.83200
C2093       C  0.98312397  0.81403954  0.08676214     0.82800
O2094       O  0.53131089  0.79101675  0.17403353    -0.78300
C2095       C  0.52249587  0.74640493  0.01336352     0.83600
O2096       O  0.56509086  0.86185720  0.15391849    -0.78400
C2097       C  0.57730543  0.86076844  0.98265191     0.83800
C2098       C  0.62830760  0.81547150  0.07877812     0.84100
O2099       O  0.62853739  0.83965842  0.07240251    -0.80800
O2100       O  0.72434073  0.00160809  0.82661342    -0.78400
C2101       C  0.65271768  0.95045488  0.91421605     0.82700
O2102       O  0.70511141  0.57283598  0.88692122    -0.79500
O2103       O  0.69516845  0.51854574  0.01590807    -0.80900
O2104       O  0.77422146  0.50655073  0.95727075    -0.80700
O2105       O  0.76775570  0.51418395  0.85648845    -0.79400
Zn2106     Zn  0.69973197  0.50617192  0.87086766     1.55700
O2107       O  0.73296277  0.98337652  0.99539535    -0.80800
Cd2108     Cd  0.76411263  0.52885706  0.91381979     1.59700
Cd2109     Cd  0.72775569  0.56295954  0.93104203     1.59600
O2110       O  0.79665871  0.57275789  0.91785118    -0.80800
O2111       O  0.72350798  0.52325722  0.92092901    -1.91300
Cd2112     Cd  0.70448307  0.99640494  0.96957112     1.59900
O2113       O  0.77186066  0.59655962  0.92876270    -0.80700
O2114       O  0.66543952  0.95881564  0.94962103    -0.79400
C2115       C  0.68951282  0.55795649  0.85598622     0.83200
C2116       C  0.75035413  0.50513252  0.82538888     0.82800
O2117       O  0.66350679  0.96618775  0.88173820    -0.78300
C2118       C  0.75949283  0.98960921  0.98717028     0.83600
O2119       O  0.68541231  0.53244225  0.84717008    -0.78400
C2120       C  0.79606978  0.59653286  0.92345520     0.83800
C2121       C  0.69948312  0.54483216  0.01826151     0.84100
O2122       O  0.71120269  0.56351020  0.98880203    -0.80800
O2123       O  0.86963588  0.50034685  0.11834560    -0.78400
C2124       C  0.78281508  0.96142000  0.17467862     0.82700
O2125       O  0.82801811  0.89369203  0.11315142    -0.79500
O2126       O  0.73648259  0.89379528  0.08223613    -0.80900
O2127       O  0.80018585  0.98317027  0.00467280    -0.80700
O2128       O  0.86770493  0.50772900  0.05046682    -0.79400
Zn2129     Zn  0.83342066  0.96036287  0.12919886     1.55700
O2130       O  0.75892929  0.95999910  0.04279761    -0.80800
Cd2131     Cd  0.82866351  0.97014166  0.03050713     1.59700
Cd2132     Cd  0.80538000  0.90358022  0.06903232     1.59600
O2133       O  0.83798463  0.94800260  0.98417562    -0.80800
O2134       O  0.80963789  0.94328602  0.07914215    -1.91300
Cd2135     Cd  0.76903698  0.93769461  0.08625213     1.59900
O2136       O  0.82193239  0.90303141  0.01127162    -0.80700
O2137       O  0.76541194  0.95238039  0.14358033    -0.79400
C2138       C  0.84363106  0.90857519  0.14407451     0.83200
C2139       C  0.88042505  0.51608607  0.08587400     0.82800
O2140       O  0.80881418  0.96492268  0.17345310    -0.78300
C2141       C  0.77365579  0.97693847  0.01289602     0.83600
O2142       O  0.84774366  0.93409440  0.15288447    -0.78400
C2143       C  0.83366153  0.92171318  0.98181794     0.83800
C2144       C  0.73706893  0.87001925  0.07662832     0.84100
O2145       O  0.76127558  0.86998992  0.07131202    -0.80800
C2146       C  0.68265660  0.78961435  0.07761123     0.80400
N2147       N  0.65654259  0.78952908  0.07814296    -0.77900
C2148       C  0.65650195  0.81551574  0.07799960     0.82800
N2149       N  0.68270690  0.84157640  0.07722883    -0.77900
C2150       C  0.70886049  0.84179248  0.07667147     0.82900
N2151       N  0.70874974  0.81579426  0.07693531    -0.79600
O2152       O  0.82463689  0.77584331  0.82602527    -0.78400
C2153       C  0.84887535  0.84784661  0.91253818     0.82700
O2154       O  0.91737024  0.79526264  0.88691570    -0.79500
O2155       O  0.87272718  0.80575016  0.01497099    -0.80900
O2156       O  0.78220292  0.72564469  0.95732430    -0.80700
O2157       O  0.79357630  0.73248724  0.85583382    -0.79400
Zn2158     Zn  0.85565754  0.80002131  0.86905769     1.55700
O2159       O  0.79977268  0.76738472  0.99397689    -0.80800
Cd2160     Cd  0.81375331  0.73602634  0.91217495     1.59700
Cd2161     Cd  0.88452574  0.77283478  0.93055259     1.59600
O2162       O  0.82576994  0.70401253  0.91515546    -0.80800
O2163       O  0.84893338  0.77667902  0.91944613    -1.91300
Cd2164     Cd  0.84137026  0.79587438  0.96798748     1.59900
O2165       O  0.87438894  0.72912649  0.92853274    -0.80700
O2166       O  0.84348180  0.83471277  0.94767225    -0.79400
C2167       C  0.91774367  0.80940963  0.85460317     0.83200
C2168       C  0.80148719  0.75014418  0.82507297     0.82800
O2169       O  0.85398018  0.83721502  0.88010138    -0.78300
C2170       C  0.77985717  0.74050018  0.98678899     0.83600
O2171       O  0.89595738  0.81265978  0.84446937    -0.78400
C2172       C  0.85025789  0.70488254  0.92201137     0.83800
C2173       C  0.89466087  0.80139395  0.01760680     0.84100
O2174       O  0.90149290  0.78954834  0.98830882    -0.80800
O2175       O  0.63722320  0.65392943  0.15560303    -0.78400
C2176       C  0.68427916  0.61870519  0.08754333     0.82700
O2177       O  0.73960055  0.73408426  0.14421479    -0.79500
O2178       O  0.73339433  0.69916899  0.00609156    -0.80900
O2179       O  0.63167990  0.67701294  0.01173754    -0.80700
O2180       O  0.61578978  0.67128501  0.11312155    -0.79400
Zn2181     Zn  0.67751428  0.66654808  0.13100686     1.55700
O2182       O  0.66044088  0.66080240  0.98508556    -0.80800
Cd2183     Cd  0.64863958  0.69372309  0.06949628     1.59700
Cd2184     Cd  0.71941083  0.73053911  0.08787981     1.59600
O2185       O  0.65876739  0.73742810  0.07152728    -0.80800
O2186       O  0.68423374  0.68988288  0.08061184    -1.91300
Cd2187     Cd  0.69179472  0.67067913  0.03207825     1.59900
O2188       O  0.70738593  0.76254748  0.08490819    -0.80700
O2189       O  0.68967705  0.63183861  0.05240786    -0.79400
C2190       C  0.73169713  0.71642596  0.17497351     0.83200
C2191       C  0.61542792  0.65716022  0.14545285     0.82800
O2192       O  0.67917517  0.62934107  0.11997664    -0.78300
C2193       C  0.63851003  0.66516297  0.98244376     0.83600
O2194       O  0.70854707  0.69072697  0.17402494    -0.78400
C2195       C  0.68289560  0.76167335  0.07805530     0.83800
C2196       C  0.75330507  0.72605735  0.01326894     0.84100
O2197       O  0.75095524  0.74091757  0.04272348    -0.80800
C2198       C  0.92206693  0.82513121  0.37459387     0.80400
N2199       N  0.94716599  0.82312211  0.37511928    -0.77900
C2200       C  0.95524084  0.81465228  0.41055143     0.82800
N2201       N  0.93798653  0.80793345  0.44481168    -0.77900
C2202       C  0.91301210  0.80980614  0.44465663     0.82900
N2203       N  0.90527578  0.81882569  0.40965205    -0.79600
O2204       O  0.90667631  0.82213590  0.19625623    -0.78400
C2205       C  0.91428301  0.83673925  0.33793618     0.82700
O2206       O  0.81592732  0.81398854  0.25002064    -0.79500
O2207       O  0.88329846  0.90307583  0.33108869    -0.80900
O2208       O  0.94860355  0.92310085  0.21524249    -0.80700
O2209       O  0.91438206  0.86101118  0.15790062    -0.79400
Zn2210     Zn  0.88707478  0.82626919  0.25003608     1.55700
O2211       O  0.94861873  0.92310685  0.28475400    -0.80800
Cd2212     Cd  0.90782342  0.88738010  0.19929343     1.59700
Cd2213     Cd  0.84656402  0.85808747  0.25003369     1.59600
O2214       O  0.88326886  0.90306104  0.16895678    -0.80800
O2215       O  0.88739849  0.86400632  0.25002739    -1.91300
Cd2216     Cd  0.90784744  0.88739144  0.30074297     1.59900
O2217       O  0.83883337  0.87714188  0.19908878    -0.80700
O2218       O  0.91443145  0.86104085  0.34214311    -0.79400
C2219       C  0.81837588  0.79102554  0.25002231     0.83200
C2220       C  0.91424722  0.83671762  0.16212221     0.82800
O2221       O  0.90668573  0.82214039  0.30381558    -0.78300
C2222       C  0.96097825  0.93399936  0.24999353     0.83600
O2223       O  0.84354058  0.79234248  0.25003292    -0.78400
C2224       C  0.85594107  0.89541085  0.17185230     0.83800
C2225       C  0.85596672  0.89541597  0.32821758     0.84100
O2226       O  0.83884834  0.87713603  0.30099828    -0.80800
C2227       C  0.92202371  0.82510142  0.12546971     0.80400
N2228       N  0.90523487  0.81879814  0.09041012    -0.77900
C2229       C  0.91296999  0.80977456  0.05540774     0.82800
N2230       N  0.93794218  0.80789719  0.05525682    -0.77900
C2231       C  0.95519362  0.81461476  0.08952095     0.82900
N2232       N  0.94711883  0.82308727  0.12494943    -0.79600
loop_ 
_geom_bond_atom_site_label_1 
_geom_bond_atom_site_label_2 
_geom_bond_distance 
_geom_bond_site_symmetry_2 
_ccdc_geom_bond_type 
C1            N2   1.356       .  A
C1            N6   1.356       .  A
C1         C1000   1.458       .  S
N2            C3   1.356       .  A
C3            N4   1.356       .  A
C3          C242   1.457       .  S
N4            C5   1.355       .  A
C5            N6   1.355       .  A
C5          C701   1.461       .  S
C7            N8   1.356       .  A
C7           N12   1.356       .  A
C7          C450   1.457       .  S
N8            C9   1.356       .  A
C9           N10   1.356       .  A
C9          C280   1.458       .  S
N10          C11   1.355       .  A
C11          N12   1.355       .  A
C11         C178   1.461       .  S
C13          N14   1.355       .  A
C13          N18   1.358       .  A
C13         C332   1.463       .  S
N14          C15   1.355       .  A
C15          N16   1.359       .  A
C15         C516   1.463       .  S
N16          C17   1.358       .  A
C17          N18   1.358       .  A
C17         C545   1.458       .  S
C19          N20   1.355       .  A
C19          N24   1.359       .  A
C19         C494   1.463       .  S
N20          C21   1.355       .  A
C21          N22   1.359       .  A
C21         C308   1.463       .  S
N22          C23   1.358       .  A
C23          N24   1.358       .  A
C23         C360   1.458       .  S
C25          N26   1.358       .  A
C25          N30   1.354       .  A
C25         C196   1.460   1_455  S
N26          C27   1.357       .  A
C27          N28   1.357       .  A
C27        C1221   1.456       .  S
N28          C29   1.358       .  A
C29          N30   1.354       .  A
C29         C396   1.460   1_455  S
C31          N32   1.354       .  A
C31          N36   1.358       .  A
C31         C404   1.460       .  S
N32          C33   1.354       .  A
C33          N34   1.358       .  A
C33         C234   1.460       .  S
N34          C35   1.357       .  A
C35          N36   1.357       .  A
C35          C70   1.456       .  S
C37          N38   1.358       .  A
C37         N600   1.357       .  A
C37         C175   1.464       .  S
N38        C1155   1.355   1_455  A
C39          N40   1.354       .  A
C39        N1154   1.355       .  A
C39         C548   1.453       .  S
N40        C1715   1.354       .  A
C41          N42   1.357       .  A
C41        N1714   1.354   1_445  A
C41          C73   1.451       .  S
N42         C595   1.357   1_545  A
C43          N44   1.357       .  A
C43        N1722   1.358       .  A
C43         C698   1.464       .  S
N44        C1161   1.357       .  A
C45          N46   1.354       .  A
C45        N1160   1.357   1_455  A
C45        C1224   1.451       .  S
N46         C605   1.354       .  A
C47          N48   1.355       .  A
C47         N604   1.354   1_545  A
C47         C363   1.453       .  S
N48        C1717   1.358   1_445  A
C49          N50   1.363       .  A
C49          N54   1.364       .  A
C49          C71   1.475       .  S
N50          C51   1.360       .  A
C51          N52   1.355       .  A
C51         C401   1.472       .  S
N52          C53   1.354       .  A
C53          N54   1.365       .  A
C53         C465   1.475       .  S
O55          C71   1.282       .  A
O55       Zn1177   2.079       .  S
C56          C78   1.475       .  S
C56          O72   1.282       .  A
C56        O1185   1.274       .  A
O57          C70   1.271       .  A
O57         Cd64   2.038       .  S
O58          C76   1.272       .  A
O58         Cd67   2.072       .  S
O59          C73   1.273       .  A
O59         Cd63   2.060       .  S
O60        C1187   1.274       .  A
O60         Cd63   2.066   1_655  S
Zn61         O74   2.052       .  S
Zn61       O1171   2.079       .  S
Zn61       O1188   2.079       .  S
Zn61         O66   1.964   1_655  S
O62          C73   1.273       .  A
O62         Cd67   2.060       .  S
Cd63         O65   2.072       .  S
Cd63         O66   1.993       .  S
Cd64         O68   2.060       .  S
Cd64         O77   2.060       .  S
Cd64         O66   1.991       .  S
O65          C75   1.272       .  A
O66         Cd67   1.993       .  S
Cd67         O69   2.066   1_455  S
O68          C75   1.271       .  A
O69        C1172   1.274       .  A
C70          O74   1.278   1_455  A
C71        O1176   1.274       .  A
O72       Zn1177   2.079       .  S
C75         C517   1.457       .  S
C76         C331   1.457       .  S
C76          O77   1.271       .  A
C78          N79   1.363       .  A
C78          N83   1.364       .  A
N79          C80   1.360       .  A
C80          N81   1.355       .  A
C80         C215   1.472       .  S
N81          C82   1.354       .  A
C82          N83   1.365       .  A
C82         C265   1.475       .  S
C84          N85   1.363       .  A
C84          N89   1.364       .  A
C84         C106   1.475       .  S
N85          C86   1.360       .  A
C86          N87   1.355       .  A
C86         C239   1.472       .  S
N87          C88   1.354       .  A
C88          N89   1.365       .  A
C88         C257   1.475       .  S
O90         C106   1.282       .  A
O90         Zn96   2.079       .  S
C91         C113   1.475       .  S
C91         O107   1.282       .  A
C91         O104   1.274       .  A
O92         C105   1.271       .  A
O92         Cd99   2.038       .  S
O93         C111   1.272       .  A
O93        Cd102   2.072       .  S
O94         C108   1.273       .  A
O94         Cd98   2.060       .  S
O95         C106   1.274       .  A
O95       Cd1214   2.066       .  S
Zn96        O107   2.079       .  S
Zn96        O109   2.052       .  S
Zn96       O1217   1.964       .  S
O97         C108   1.273       .  A
O97        Cd102   2.060       .  S
Cd98        O100   2.072       .  S
Cd98       O1211   2.066       .  S
Cd98        O101   1.993       .  S
Cd99        O103   2.060       .  S
Cd99        O112   2.060       .  S
Cd99        O101   1.991       .  S
O100        C110   1.272       .  A
O101      Zn1212   1.964       .  S
O101       Cd102   1.993       .  S
Cd102      O1220   2.066       .  S
O103        C110   1.271       .  A
O104      Cd1218   2.066       .  S
C105       C1143   1.456       .  S
C105       O1225   1.278       .  A
C108       C1161   1.451       .  S
O109       C1221   1.278       .  A
C110        C309   1.457       .  S
C111        C493   1.457       .  S
C111        O112   1.271       .  A
C113        N114   1.363       .  A
C113        N118   1.364       .  A
N114        C115   1.360       .  A
C115        N116   1.355       .  A
C115        C423   1.472       .  S
N116        C117   1.354       .  A
C117        N118   1.365       .  A
C117        C427   1.475       .  S
C119        N120   1.365       .  A
C119        N124   1.363       .  A
C119        C126   1.479       .  S
N120        C121   1.367       .  A
C121        N122   1.355       .  A
C121        C294   1.473       .  S
N122        C123   1.353       .  A
C123        N124   1.356       .  A
C123        C285   1.469       .  S
O125        C141   1.282       .  A
O125       Zn131   2.078       .  S
C126        O142   1.282       .  A
C126        O139   1.274       .  A
O127        C140   1.273   1_545  A
O127       Cd134   2.047       .  S
O128        C146   1.273       .  A
O128       Cd137   2.074   1_545  S
O129        C143   1.273       .  A
O129       Cd133   2.058       .  S
O130        C141   1.274       .  A
O130       Cd691   2.051       .  S
Zn131       O142   2.078       .  S
Zn131       O144   2.033       .  S
Zn131       O694   1.969       .  S
O132        C143   1.273       .  A
O132       Cd137   2.058       .  S
Cd133       O135   2.073   1_565  S
Cd133       O688   2.051       .  S
Cd133       O136   1.991       .  S
Cd134       O138   2.056       .  S
Cd134       O147   2.057       .  S
Cd134       O136   1.992   1_545  S
O135        C145   1.273       .  A
O136       Zn689   1.969       .  S
O136       Cd137   1.991       .  S
Cd137       O697   2.051       .  S
O138        C145   1.272       .  A
O139       Cd695   2.051       .  S
C140        C601   1.464       .  S
C140        O702   1.277       .  A
C141        C148   1.479       .  S
C143        C563   1.461       .  S
O144        C698   1.277       .  A
C145        C395   1.467       .  S
C146        C210   1.467       .  S
C146        O147   1.272       .  A
C148        N149   1.365       .  A
C148        N153   1.363       .  A
N149        C150   1.367       .  A
C150        N151   1.355       .  A
C150        C479   1.473       .  S
N151        C152   1.353       .  A
C152        N153   1.356       .  A
C152        C469   1.469       .  S
C154        N155   1.363       .  A
C154        N159   1.365       .  A
C154        C161   1.479       .  S
N155        C156   1.356       .  A
C156        N157   1.353       .  A
C156        C447   1.469       .  S
N157        C158   1.355       .  A
C158        N159   1.367       .  A
C158        C502   1.473       .  S
O160        C176   1.282       .  A
O160       Zn724   2.078       .  S
C161        O177   1.282       .  A
C161        O732   1.274       .  A
O162        C175   1.273       .  A
O162       Cd169   2.047       .  S
O163        C181   1.273       .  A
O163       Cd172   2.074       .  S
O164        C178   1.273       .  A
O164       Cd168   2.057       .  S
O165        C734   1.274       .  A
O165       Cd168   2.051       .  S
Zn166       O179   2.033       .  S
Zn166       O718   2.078       .  S
Zn166       O735   2.078       .  S
Zn166       O171   1.969       .  S
O167        C178   1.273       .  A
O167       Cd172   2.058       .  S
Cd168       O170   2.073       .  S
Cd168       O171   1.991       .  S
Cd169       O173   2.057       .  S
Cd169       O182   2.056       .  S
Cd169       O171   1.992       .  S
O170        C180   1.273       .  A
O171       Cd172   1.991       .  S
Cd172       O174   2.052       .  S
O173        C180   1.272       .  A
O174        C719   1.274       .  A
C175        O179   1.277       .  A
C176        C183   1.479       .  S
C176        O723   1.274       .  A
O177       Zn724   2.078       .  S
C180        C233   1.467       .  S
C181        C418   1.467       .  S
C181        O182   1.272       .  A
C183        N184   1.365       .  A
C183        N188   1.363       .  A
N184        C185   1.367       .  A
C185        N186   1.355       .  A
C185        C317   1.473       .  S
N186        C187   1.353       .  A
C187        N188   1.356       .  A
C187        C261   1.469       .  S
C189        N190   1.359       .  A
C189        N194   1.357       .  A
C189        C313   1.467       .  S
N190        C191   1.360       .  A
C191        N192   1.357       .  A
C191        C216   1.469       .  S
N192        C193   1.358       .  A
C193        N194   1.356       .  A
C193        C262   1.465       .  S
O195        C211   1.272       .  A
O195      Zn1317   2.014   1_455  S
C196        O212   1.274   1_655  A
C196       O1325   1.272       .  A
O197        C210   1.274       .  A
O197       Cd204   2.073       .  S
O198        C216   1.273       .  A
O198       Cd207   2.062       .  S
O199        C213   1.278       .  A
O199       Cd203   2.085       .  S
O200        C211   1.280       .  A
O200       Cd203   2.091       .  S
Zn201       O214   2.008       .  S
Zn201      O1311   2.014       .  S
Zn201      O1328   2.014       .  S
Zn201       O206   1.948       .  S
O202       C1329   1.269       .  A
O202       Cd207   2.043       .  S
Cd203      O1321   2.092   1_455  S
Cd203      O1322   2.001   1_455  S
Cd204       O208   2.062       .  S
Cd204       O217   2.078       .  S
Cd204       O206   1.999       .  S
O205        C215   1.277       .  A
O205      Cd1319   2.092       .  S
O206       Cd207   2.000       .  S
O206      Cd1319   2.001       .  S
Cd207       O209   2.052       .  S
O208        C215   1.275       .  A
O209       C1312   1.272       .  A
C210        O214   1.273       .  A
C211        C341   1.474       .  S
O212      Zn1317   2.014   1_455  S
C213        C236   1.465       .  S
C213       O1318   1.269   1_455  A
C216        O217   1.275       .  A
O218        C234   1.274       .  A
O218       Zn224   2.014       .  S
C219        C526   1.474       .  S
C219        O232   1.280       .  A
C219       O1351   1.272       .  A
O220        C233   1.274       .  A
O220       Cd227   2.073       .  S
O221        C239   1.277       .  A
O221       Cd230   2.092       .  S
O222        C236   1.269       .  A
O222       Cd226   2.043       .  S
O223        C234   1.272       .  A
O223       Cd226   2.052       .  S
Zn224       O235   2.014   1_455  S
Zn224       O237   2.007       .  S
Zn224       O229   1.948       .  S
O225        C236   1.278       .  A
O225       Cd230   2.085       .  S
Cd226       O228   2.062       .  S
Cd226       O229   2.000       .  S
Cd227       O231   2.078       .  S
Cd227       O240   2.062       .  S
Cd227       O229   1.999       .  S
O228        C238   1.273       .  A
O229       Cd230   2.001       .  S
Cd230      O1348   2.091   1_455  S
O231        C238   1.275       .  A
O232      Cd1346   2.091       .  S
C233        O237   1.273       .  A
O235       C1335   1.272       .  A
C238        C289   1.469       .  S
C239        O240   1.275       .  A
O241        C257   1.273       .  A
O241       Zn805   2.017       .  S
C242        O258   1.273       .  A
C242        O813   1.271       .  A
O243        C256   1.273       .  A
O243       Cd250   2.073       .  S
O244        C262   1.272       .  A
O244       Cd253   2.056       .  S
O245        C259   1.278       .  A
O245       Cd249   2.093       .  S
O246        C257   1.280       .  A
O246       Cd249   2.092       .  S
Zn247       O260   2.015       .  S
Zn247       O799   2.017   1_545  S
Zn247       O816   2.011       .  S
Zn247       O252   1.953       .  S
O248        C817   1.271   1_545  A
O248       Cd253   2.054       .  S
Cd249       O809   2.091       .  S
Cd249       O810   2.001       .  S
Cd250       O254   2.057       .  S
Cd250       O263   2.073       .  S
Cd250       O252   2.000       .  S
O251        C261   1.278       .  A
O251       Cd807   2.091   1_545  S
O252       Cd253   1.998       .  S
O252       Cd807   2.001   1_545  S
Cd253       O255   2.045       .  S
O254        C261   1.275       .  A
O255        C800   1.271       .  A
C256        C365   1.460       .  S
C256        O260   1.272       .  A
O258       Zn805   2.011       .  S
C259        C282   1.471       .  S
C259        O806   1.271       .  A
C262        O263   1.274       .  A
O264        C280   1.273       .  A
O264       Zn270   2.011       .  S
C265        O281   1.273       .  A
C265        O278   1.280       .  A
O266        C279   1.273       .  A
O266       Cd273   2.073       .  S
O267        C285   1.278       .  A
O267       Cd276   2.091       .  S
O268        C282   1.271       .  A
O268       Cd272   2.054       .  S
O269        C280   1.271       .  A
O269       Cd272   2.045       .  S
Zn270       O283   2.016       .  S
Zn270       O839   2.017       .  S
Zn270       O275   1.953       .  S
O271        C282   1.278       .  A
O271       Cd276   2.093       .  S
Cd272       O274   2.056       .  S
Cd272       O275   1.998       .  S
Cd273       O277   2.073       .  S
Cd273       O286   2.057       .  S
Cd273       O275   2.000       .  S
O274        C284   1.272       .  A
O275       Cd276   2.001       .  S
Cd276       O836   2.092       .  S
O277        C284   1.274       .  A
O278       Cd834   2.092   1_545  S
C279        C551   1.460       .  S
C279        O283   1.272       .  A
O281       Zn828   2.017   1_545  S
C284        C291   1.465       .  S
C285        O286   1.275       .  A
C287        N288   1.359       .  A
C287        N292   1.357       .  A
C287        C336   1.467       .  S
N288        C289   1.360       .  A
C289        N290   1.357       .  A
N290        C291   1.358       .  A
C291        N292   1.356       .  A
O293        C309   1.273       .  A
O293       Zn299   2.018       .  S
C294        O310   1.273       .  A
C294        O307   1.279       .  A
O295        C308   1.273       .  A
O295       Cd302   2.059       .  S
O296        C314   1.278       .  A
O296       Cd305   2.088       .  S
O297        C311   1.274       .  A
O297       Cd301   2.056       .  S
O298        C309   1.271       .  A
O298       Cd301   2.062       .  S
Zn299       O310   2.022       .  S
Zn299       O312   2.017       .  S
Zn299       O304   1.953       .  S
O300        C311   1.277       .  A
O300       Cd305   2.092       .  S
Cd301       O303   2.070       .  S
Cd301       O304   1.997       .  S
Cd302       O306   2.065       .  S
Cd302       O315   2.052       .  S
Cd302       O304   1.999       .  S
O303        C313   1.274       .  A
O304       Cd305   2.002       .  S
Cd305       O307   2.083       .  S
O306        C313   1.274       .  A
C308        O312   1.274       .  A
C311        C528   1.471       .  S
C314        C334   1.469       .  S
C314        O315   1.271       .  A
O316        C332   1.274       .  A
O316       Zn322   2.017       .  S
C317        O333   1.273       .  A
C317        O330   1.279       .  A
O318        C331   1.271       .  A
O318       Cd325   2.062       .  S
O319        C337   1.277       .  A
O319       Cd328   2.092       .  S
O320        C334   1.271       .  A
O320       Cd324   2.052       .  S
O321        C332   1.273       .  A
O321       Cd324   2.058       .  S
Zn322       O333   2.022       .  S
Zn322       O335   2.019       .  S
Zn322       O327   1.953       .  S
O323        C334   1.278       .  A
O323       Cd328   2.088       .  S
Cd324       O326   2.065       .  S
Cd324       O327   1.999       .  S
Cd325       O329   2.070       .  S
Cd325       O338   2.056       .  S
Cd325       O327   1.997       .  S
O326        C336   1.274       .  A
O327       Cd328   2.002       .  S
Cd328       O330   2.083       .  S
O329        C336   1.274       .  A
C331        O335   1.273       .  A
C337        C343   1.471       .  S
C337        O338   1.274       .  A
C339        N340   1.365       .  A
C339        N344   1.363       .  A
C339        C361   1.475       .  S
N340        C341   1.365       .  A
C341        N342   1.353       .  A
N342        C343   1.354       .  A
C343        N344   1.360       .  A
O345        C361   1.281       .  A
O345       Zn351   2.077       .  S
C346        C368   1.475       .  S
C346        O362   1.281       .  A
C346        O359   1.274       .  A
O347        C360   1.270       .  A
O347       Cd354   2.036       .  S
O348        C366   1.274       .  A
O348       Cd357   2.080       .  S
O349        C363   1.274       .  A
O349       Cd353   2.064       .  S
O350        C361   1.274       .  A
O350       Cd353   2.067       .  S
Zn351       O362   2.077       .  S
Zn351       O364   2.056       .  S
Zn351       O356   1.965       .  S
O352        C363   1.274       .  A
O352       Cd357   2.064       .  S
Cd353       O355   2.080       .  S
Cd353       O356   1.996       .  S
Cd354       O358   2.062       .  S
Cd354       O367   2.062       .  S
Cd354       O356   1.990       .  S
O355        C365   1.274       .  A
O356       Cd357   1.996       .  S
Cd357       O359   2.067       .  S
O358        C365   1.271       .  A
C360        O364   1.278       .  A
C366        C441   1.460       .  S
C366        O367   1.271       .  A
C368        N369   1.365       .  A
C368        N373   1.363       .  A
N369        C370   1.365       .  A
C370        N371   1.353       .  A
C370        C381   1.474       .  S
N371        C372   1.354       .  A
C372        N373   1.360       .  A
C372        C519   1.471       .  S
C374        N375   1.358       .  A
C374        N379   1.359       .  A
C374        C498   1.467       .  S
N375        C376   1.356       .  A
C376        N377   1.358       .  A
C376        C446   1.465       .  S
N377        C378   1.357       .  A
C378        N379   1.360       .  A
C378        C400   1.469       .  S
O380        C396   1.274   1_455  A
O380      Zn1502   2.014   1_455  S
C381        O397   1.272       .  A
C381        O394   1.280       .  A
O382        C395   1.274       .  A
O382       Cd389   2.073       .  S
O383        C401   1.277       .  A
O383      Cd1508   2.092   1_554  S
O384       C1514   1.269       .  A
O384       Cd388   2.043       .  S
O385       C1512   1.272       .  A
O385       Cd388   2.052       .  S
Zn386       O399   2.007       .  S
Zn386      O1496   2.014       .  S
Zn386      O1513   2.014       .  S
Zn386       O391   1.948       .  S
O387        C398   1.278       .  A
O387       Cd392   2.085       .  S
Cd388       O390   2.062       .  S
Cd388       O391   2.000       .  S
Cd389       O393   2.078       .  S
Cd389       O402   2.062       .  S
Cd389       O391   1.999       .  S
O390        C400   1.273       .  A
O391      Cd1508   2.001       .  S
Cd392       O394   2.091       .  S
Cd392      O1499   2.092   1_456  S
Cd392      O1507   2.001   1_455  S
O393        C400   1.275       .  A
C395        O399   1.273       .  A
C396       O1501   1.272       .  A
O397      Zn1502   2.014   1_455  S
C398        C421   1.465   1_556  S
C398       O1500   1.269   1_455  A
C401        O402   1.275   1_554  A
O403       C1535   1.272       .  A
O403       Zn409   2.014   1_655  S
C404        O420   1.274       .  A
C404        O417   1.272       .  A
O405        C418   1.274       .  A
O405       Cd412   2.073       .  S
O406        C424   1.273       .  A
O406       Cd415   2.062       .  S
O407        C421   1.278       .  A
O407       Cd411   2.085       .  S
O408        C419   1.280       .  A
O408      Cd1527   2.091       .  S
Zn409       O420   2.014       .  S
Zn409       O422   2.008       .  S
Zn409       O414   1.948       .  S
O410        C421   1.269       .  A
O410       Cd415   2.043       .  S
Cd411       O413   2.092   1_554  S
Cd411      O1524   2.091   1_455  S
Cd411       O414   2.001       .  S
Cd412       O416   2.062       .  S
Cd412       O425   2.077       .  S
Cd412       O414   1.999       .  S
O413        C423   1.277       .  A
O414       Cd415   2.000       .  S
Cd415       O417   2.052       .  S
O416        C423   1.275   1_554  A
C418        O422   1.273       .  A
C419        C557   1.474       .  S
C419       O1519   1.272       .  A
C424        C474   1.469       .  S
C424        O425   1.275       .  A
O426       C1000   1.273       .  A
O426       Zn990   2.011       .  S
C427        O443   1.273       .  A
C427        O440   1.280       .  A
O428        C441   1.273       .  A
O428       Cd435   2.073       .  S
O429        C447   1.278       .  A
O429       Cd996   2.091   1_544  S
O430       C1002   1.271   1_545  A
O430       Cd434   2.054       .  S
O431        C442   1.271       .  A
O431       Cd434   2.045       .  S
Zn432       O445   2.016       .  S
Zn432       O984   2.011       .  S
Zn432      O1001   2.017   1_545  S
Zn432       O437   1.953       .  S
O433        C444   1.278       .  A
O433       Cd438   2.093       .  S
Cd434       O436   2.056       .  S
Cd434       O437   1.998       .  S
Cd435       O439   2.073       .  S
Cd435       O448   2.057       .  S
Cd435       O437   2.000       .  S
O436        C446   1.272       .  A
O437       Cd996   2.001   1_545  S
Cd438       O440   2.092       .  S
Cd438       O987   2.091   1_556  S
Cd438       O995   2.001       .  S
O439        C446   1.274       .  A
C441        O445   1.272       .  A
C442        C559   1.458       .  S
C442        O984   1.273       .  A
O443       Zn990   2.017       .  S
C444        C467   1.471   1_556  S
C444        O988   1.271       .  A
C447        O448   1.275   1_554  A
O449        C465   1.273       .  A
O449      Zn1013   2.017   1_545  S
C450        O466   1.273       .  A
C450        O463   1.271       .  A
O451        C464   1.273       .  A
O451       Cd458   2.073       .  S
O452        C470   1.272       .  A
O452       Cd461   2.056       .  S
O453        C467   1.278       .  A
O453       Cd457   2.093       .  S
O454        C465   1.280       .  A
O454      Cd1015   2.092   1_545  S
Zn455       O466   2.011       .  S
Zn455       O468   2.016       .  S
Zn455      O1007   2.017       .  S
Zn455       O460   1.953       .  S
O456        C467   1.271       .  A
O456       Cd461   2.054       .  S
Cd457       O459   2.091   1_554  S
Cd457      O1012   2.092       .  S
Cd457       O460   2.000       .  S
Cd458       O462   2.057       .  S
Cd458       O471   2.073       .  S
Cd458       O460   2.000       .  S
O459        C469   1.278       .  A
O460       Cd461   1.998       .  S
Cd461       O463   2.045       .  S
O462        C469   1.275   1_554  A
C464        C550   1.460       .  S
C464        O468   1.272       .  A
C470        C476   1.465       .  S
C470        O471   1.274       .  A
C472        N473   1.359       .  A
C472        N477   1.357       .  A
C472        C521   1.467       .  S
N473        C474   1.360       .  A
C474        N475   1.357       .  A
N475        C476   1.358       .  A
C476        N477   1.356       .  A
O478        C494   1.274       .  A
O478       Zn484   2.017       .  S
C479        O495   1.273       .  A
C479        O492   1.279       .  A
O480        C493   1.271       .  A
O480       Cd487   2.062       .  S
O481        C499   1.277       .  A
O481       Cd490   2.092   1_554  S
O482        C496   1.271       .  A
O482       Cd486   2.052       .  S
O483        C494   1.273       .  A
O483       Cd486   2.058       .  S
Zn484       O495   2.022       .  S
Zn484       O497   2.019       .  S
Zn484       O489   1.953       .  S
O485        C496   1.278       .  A
O485       Cd490   2.088       .  S
Cd486       O488   2.065       .  S
Cd486       O489   1.999       .  S
Cd487       O491   2.070       .  S
Cd487       O500   2.056       .  S
Cd487       O489   1.997       .  S
O488        C498   1.274       .  A
O489       Cd490   2.002       .  S
Cd490       O492   2.083       .  S
O491        C498   1.274       .  A
C493        O497   1.273       .  A
C496        C522   1.469   1_556  S
C499        C555   1.471       .  S
C499        O500   1.274   1_554  A
O501        C517   1.273       .  A
O501       Zn507   2.018       .  S
C502        O518   1.273       .  A
C502        O515   1.279       .  A
O503        C516   1.273       .  A
O503       Cd510   2.059       .  S
O504        C522   1.278       .  A
O504       Cd513   2.088       .  S
O505        C519   1.274   1_554  A
O505       Cd509   2.056       .  S
O506        C517   1.271       .  A
O506       Cd509   2.062       .  S
Zn507       O518   2.022       .  S
Zn507       O520   2.017       .  S
Zn507       O512   1.953       .  S
O508        C519   1.277       .  A
O508       Cd513   2.092   1_556  S
Cd509       O511   2.070       .  S
Cd509       O512   1.997       .  S
Cd510       O514   2.065       .  S
Cd510       O523   2.052       .  S
Cd510       O512   1.999       .  S
O511        C521   1.274       .  A
O512       Cd513   2.002       .  S
Cd513       O515   2.083       .  S
O514        C521   1.274       .  A
C516        O520   1.274       .  A
C522        O523   1.271       .  A
C524        N525   1.365       .  A
C524        N529   1.363       .  A
C524        C531   1.475       .  S
N525        C526   1.365       .  A
C526        N527   1.353       .  A
N527        C528   1.354       .  A
C528        N529   1.360       .  A
O530        C546   1.281       .  A
O530       Zn536   2.077       .  S
C531        O547   1.281       .  A
C531        O544   1.274       .  A
O532        C545   1.270       .  A
O532       Cd539   2.036       .  S
O533        C551   1.274       .  A
O533       Cd542   2.080       .  S
O534        C548   1.274       .  A
O534       Cd538   2.064       .  S
O535        C546   1.274       .  A
O535       Cd538   2.067       .  S
Zn536       O547   2.077       .  S
Zn536       O549   2.056       .  S
Zn536       O541   1.965       .  S
O537        C548   1.274       .  A
O537       Cd542   2.064       .  S
Cd538       O540   2.080       .  S
Cd538       O541   1.996       .  S
Cd539       O543   2.062       .  S
Cd539       O552   2.062       .  S
Cd539       O541   1.990       .  S
O540        C550   1.274       .  A
O541       Cd542   1.996       .  S
Cd542       O544   2.067       .  S
O543        C550   1.271       .  A
C545        O549   1.278       .  A
C546        C553   1.475       .  S
C551        O552   1.271       .  A
C553        N554   1.363       .  A
C553        N558   1.365       .  A
N554        C555   1.360       .  A
C555        N556   1.354       .  A
N556        C557   1.353       .  A
C557        N558   1.365       .  A
C559        N560   1.356       .  A
C559        N564   1.356   1_545  A
N560        C561   1.356       .  A
C561        N562   1.356   1_545  A
C561        C800   1.457       .  S
N562        C563   1.355       .  A
C563        N564   1.355       .  A
C565        N566   1.356       .  A
C565        N570   1.356       .  A
C565       C1008   1.457       .  S
N566        C567   1.356       .  A
C567        N568   1.356       .  A
C567        C838   1.458       .  S
N568        C569   1.355       .  A
C569        N570   1.355       .  A
C569        C736   1.461       .  S
C571        N572   1.355       .  A
C571        N576   1.358       .  A
C571        C890   1.463       .  S
N572        C573   1.355       .  A
C573        N574   1.359       .  A
C573       C1074   1.463       .  S
N574        C575   1.358       .  A
C575        N576   1.358       .  A
C575       C1103   1.458       .  S
C577        N578   1.355       .  A
C577        N582   1.359       .  A
C577       C1052   1.463       .  S
N578        C579   1.355       .  A
C579        N580   1.359       .  A
C579        C866   1.463       .  S
N580        C581   1.358       .  A
C581        N582   1.358       .  A
C581        C918   1.458       .  S
C583        N584   1.358       .  A
C583        N588   1.354       .  A
C583        C754   1.460   1_455  S
N584        C585   1.357       .  A
C585        N586   1.357       .  A
C585       C1779   1.456       .  S
N586        C587   1.358       .  A
C587        N588   1.354       .  A
C587        C954   1.460   1_455  S
C589        N590   1.354       .  A
C589        N594   1.358       .  A
C589        C962   1.460       .  S
N590        C591   1.354       .  A
C591        N592   1.358       .  A
C591        C792   1.460       .  S
N592        C593   1.357       .  A
C593        N594   1.357       .  A
C593        C628   1.456       .  S
C595        N596   1.358       .  A
C595        C733   1.464       .  S
N596       C1713   1.355   1_455  A
C597       N1712   1.355       .  A
C597        N598   1.354       .  A
C597       C1106   1.453       .  S
N598       C1157   1.354   1_565  A
C599       N1156   1.354   1_455  A
C599        N600   1.357       .  A
C599        C631   1.451       .  S
C601        N602   1.357       .  A
C601       N1164   1.358   1_565  A
N602       C1719   1.357       .  A
C603       N1718   1.357   1_455  A
C603        N604   1.354       .  A
C603       C1782   1.451       .  S
C605        N606   1.355       .  A
C605        C921   1.453       .  S
N606       C1159   1.358   1_455  A
C607        N608   1.363       .  A
C607        N612   1.364       .  A
C607        C629   1.475       .  S
N608        C609   1.360       .  A
C609        N610   1.355       .  A
C609        C959   1.472       .  S
N610        C611   1.354       .  A
C611        N612   1.365       .  A
C611       C1023   1.475       .  S
O613        C629   1.282       .  A
O613      Zn1735   2.079       .  S
C614        C636   1.475       .  S
C614        O630   1.282       .  A
C614       O1743   1.274       .  A
O615        C628   1.271       .  A
O615       Cd622   2.038       .  S
O616        C634   1.272       .  A
O616       Cd625   2.072       .  S
O617        C631   1.273       .  A
O617       Cd621   2.060       .  S
O618       C1745   1.274       .  A
O618       Cd621   2.066   1_655  S
Zn619      O1729   2.079       .  S
Zn619      O1746   2.079       .  S
Zn619       O632   2.052       .  S
Zn619       O624   1.964   1_655  S
O620        C631   1.273       .  A
O620       Cd625   2.060       .  S
Cd621       O623   2.072       .  S
Cd621       O624   1.993       .  S
Cd622       O626   2.060       .  S
Cd622       O635   2.060       .  S
Cd622       O624   1.991       .  S
O623        C633   1.272       .  A
O624       Cd625   1.993       .  S
Cd625       O627   2.066   1_455  S
O626        C633   1.271       .  A
O627       C1730   1.274       .  A
C628        O632   1.278   1_455  A
C629       O1734   1.274       .  A
O630      Zn1735   2.079       .  S
C633       C1075   1.457       .  S
C634        C889   1.457       .  S
C634        O635   1.271       .  A
C636        N637   1.363       .  A
C636        N641   1.364       .  A
N637        C638   1.360       .  A
C638        N639   1.355       .  A
C638        C773   1.472       .  S
N639        C640   1.354       .  A
C640        N641   1.365       .  A
C640        C823   1.475       .  S
C642        N643   1.363       .  A
C642        N647   1.364       .  A
C642        C664   1.475       .  S
N643        C644   1.360       .  A
C644        N645   1.355       .  A
C644        C797   1.472       .  S
N645        C646   1.354       .  A
C646        N647   1.365       .  A
C646        C815   1.475       .  S
O648        C664   1.282       .  A
O648       Zn654   2.079       .  S
C649        C671   1.475       .  S
C649        O665   1.282       .  A
C649        O662   1.274       .  A
O650        C663   1.271       .  A
O650       Cd657   2.038       .  S
O651        C669   1.272       .  A
O651       Cd660   2.072       .  S
O652        C666   1.273       .  A
O652       Cd656   2.060       .  S
O653        C664   1.274       .  A
O653      Cd1772   2.066       .  S
Zn654       O665   2.079       .  S
Zn654       O667   2.052       .  S
Zn654      O1775   1.964       .  S
O655        C666   1.273       .  A
O655       Cd660   2.060       .  S
Cd656      O1769   2.066       .  S
Cd656       O658   2.072       .  S
Cd656       O659   1.993       .  S
Cd657       O661   2.060       .  S
Cd657       O670   2.060       .  S
Cd657       O659   1.991       .  S
O658        C668   1.272       .  A
O659      Zn1770   1.964       .  S
O659       Cd660   1.993       .  S
Cd660      O1778   2.066       .  S
O661        C668   1.271       .  A
O662      Cd1776   2.066       .  S
C663       C1701   1.456       .  S
C663       O1783   1.278       .  A
C666       C1719   1.451       .  S
O667       C1779   1.278       .  A
C668        C867   1.457       .  S
C669       C1051   1.457       .  S
C669        O670   1.271       .  A
C671        N672   1.363       .  A
C671        N676   1.364       .  A
N672        C673   1.360       .  A
C673        N674   1.355       .  A
C673        C981   1.472       .  S
N674        C675   1.354       .  A
C675        N676   1.365       .  A
C675        C985   1.475       .  S
C677        N678   1.365       .  A
C677        N682   1.363       .  A
C677        C684   1.479       .  S
N678        C679   1.367       .  A
C679        N680   1.355       .  A
C679        C852   1.473       .  S
N680        C681   1.353       .  A
C681        N682   1.356       .  A
C681        C843   1.469       .  S
O683        C699   1.282       .  A
O683       Zn689   2.078       .  S
C684        O700   1.282       .  A
C684        O697   1.274       .  A
O685        C698   1.273       .  A
O685       Cd692   2.047       .  S
O686        C704   1.273       .  A
O686       Cd695   2.074       .  S
O687        C701   1.273       .  A
O687       Cd691   2.058       .  S
O688        C699   1.274       .  A
Zn689       O700   2.078       .  S
Zn689       O702   2.033       .  S
O690        C701   1.273       .  A
O690       Cd695   2.058       .  S
Cd691       O693   2.073       .  S
Cd691       O694   1.991       .  S
Cd692       O696   2.056       .  S
Cd692       O705   2.057       .  S
Cd692       O694   1.992       .  S
O693        C703   1.273       .  A
O694       Cd695   1.991       .  S
O696        C703   1.272       .  A
C699        C706   1.479       .  S
C703        C953   1.467       .  S
C704        C768   1.467       .  S
C704        O705   1.272       .  A
C706        N707   1.365       .  A
C706        N711   1.363       .  A
N707        C708   1.367       .  A
C708        N709   1.355       .  A
C708       C1037   1.473       .  S
N709        C710   1.353       .  A
C710        N711   1.356       .  A
C710       C1027   1.469       .  S
C712        N713   1.363       .  A
C712        N717   1.365       .  A
C712        C719   1.479       .  S
N713        C714   1.356       .  A
C714        N715   1.353       .  A
C714       C1005   1.469       .  S
N715        C716   1.355       .  A
C716        N717   1.367       .  A
C716       C1060   1.473       .  S
O718        C734   1.282       .  A
C719        O735   1.282       .  A
O720        C733   1.273       .  A
O720       Cd727   2.047       .  S
O721        C739   1.273       .  A
O721       Cd730   2.074       .  S
O722        C736   1.273       .  A
O722       Cd726   2.057       .  S
O723       Cd726   2.051   1_545  S
Zn724       O737   2.033       .  S
Zn724       O729   1.969   1_545  S
O725        C736   1.273       .  A
O725       Cd730   2.058       .  S
Cd726       O728   2.073       .  S
Cd726       O729   1.991       .  S
Cd727       O731   2.057       .  S
Cd727       O740   2.056       .  S
Cd727       O729   1.992       .  S
O728        C738   1.273       .  A
O729       Cd730   1.991       .  S
Cd730       O732   2.052   1_565  S
O731        C738   1.272       .  A
C733        O737   1.277   1_565  A
C734        C741   1.479       .  S
C738        C791   1.467       .  S
C739        C976   1.467       .  S
C739        O740   1.272       .  A
C741        N742   1.365       .  A
C741        N746   1.363       .  A
N742        C743   1.367       .  A
C743        N744   1.355       .  A
C743        C875   1.473       .  S
N744        C745   1.353       .  A
C745        N746   1.356       .  A
C745        C819   1.469       .  S
C747        N748   1.359       .  A
C747        N752   1.357       .  A
C747        C871   1.467       .  S
N748        C749   1.360       .  A
C749        N750   1.357       .  A
C749        C774   1.469       .  S
N750        C751   1.358       .  A
C751        N752   1.356       .  A
C751        C820   1.465       .  S
O753        C769   1.272       .  A
O753      Zn1875   2.014   1_455  S
C754        O770   1.274   1_655  A
C754       O1883   1.272       .  A
O755        C768   1.274       .  A
O755       Cd762   2.073       .  S
O756        C774   1.273       .  A
O756       Cd765   2.062       .  S
O757        C771   1.278       .  A
O757       Cd761   2.085       .  S
O758        C769   1.280       .  A
O758       Cd761   2.091       .  S
Zn759      O1869   2.014       .  S
Zn759      O1886   2.014       .  S
Zn759       O772   2.008       .  S
Zn759       O764   1.948       .  S
O760       C1887   1.269       .  A
O760       Cd765   2.043       .  S
Cd761      O1879   2.092   1_455  S
Cd761      O1880   2.001   1_455  S
Cd762       O766   2.062       .  S
Cd762       O775   2.078       .  S
Cd762       O764   1.999       .  S
O763        C773   1.277       .  A
O763      Cd1877   2.092       .  S
O764      Cd1877   2.001       .  S
O764       Cd765   2.000       .  S
Cd765       O767   2.052       .  S
O766        C773   1.275       .  A
O767       C1870   1.272       .  A
C768        O772   1.273       .  A
C769        C899   1.474       .  S
O770      Zn1875   2.014   1_455  S
C771        C794   1.465       .  S
C771       O1876   1.269   1_455  A
C774        O775   1.275       .  A
O776        C792   1.274       .  A
O776       Zn782   2.014       .  S
C777       C1084   1.474       .  S
C777       O1909   1.272       .  A
C777        O790   1.280       .  A
O778        C791   1.274       .  A
O778       Cd785   2.073       .  S
O779        C797   1.277       .  A
O779       Cd788   2.092       .  S
O780        C794   1.269       .  A
O780       Cd784   2.043       .  S
O781        C792   1.272       .  A
O781       Cd784   2.052       .  S
Zn782       O793   2.014   1_455  S
Zn782       O795   2.007       .  S
Zn782       O787   1.948       .  S
O783        C794   1.278       .  A
O783       Cd788   2.085       .  S
Cd784       O786   2.062       .  S
Cd784       O787   2.000       .  S
Cd785       O789   2.078       .  S
Cd785       O798   2.062       .  S
Cd785       O787   1.999       .  S
O786        C796   1.273       .  A
O787       Cd788   2.001       .  S
Cd788      O1906   2.091   1_455  S
O789        C796   1.275       .  A
O790      Cd1904   2.091       .  S
C791        O795   1.273       .  A
O793       C1893   1.272       .  A
C796        C847   1.469       .  S
C797        O798   1.275       .  A
O799        C815   1.273       .  A
C800        O816   1.273       .  A
O801        C814   1.273       .  A
O801       Cd808   2.073       .  S
O802        C820   1.272       .  A
O802       Cd811   2.056       .  S
O803        C817   1.278       .  A
O803       Cd807   2.093       .  S
O804        C815   1.280       .  A
O804       Cd807   2.092       .  S
Zn805       O818   2.015       .  S
Zn805       O810   1.953       .  S
O806       Cd811   2.054       .  S
Cd808       O812   2.057       .  S
Cd808       O821   2.073       .  S
Cd808       O810   2.000       .  S
O809        C819   1.278       .  A
O810       Cd811   1.998       .  S
Cd811       O813   2.045       .  S
O812        C819   1.275       .  A
C814        C923   1.460       .  S
C814        O818   1.272       .  A
C817        C840   1.471       .  S
C820        O821   1.274       .  A
O822        C838   1.273       .  A
O822       Zn828   2.011       .  S
C823        O839   1.273       .  A
C823        O836   1.280       .  A
O824        C837   1.273       .  A
O824       Cd831   2.073       .  S
O825        C843   1.278       .  A
O825       Cd834   2.091       .  S
O826        C840   1.271       .  A
O826       Cd830   2.054       .  S
O827        C838   1.271       .  A
O827       Cd830   2.045       .  S
Zn828       O841   2.016       .  S
Zn828       O833   1.953       .  S
O829        C840   1.278       .  A
O829       Cd834   2.093       .  S
Cd830       O832   2.056       .  S
Cd830       O833   1.998       .  S
Cd831       O835   2.073       .  S
Cd831       O844   2.057       .  S
Cd831       O833   2.000       .  S
O832        C842   1.272       .  A
O833       Cd834   2.001       .  S
O835        C842   1.274       .  A
C837       C1109   1.460       .  S
C837        O841   1.272       .  A
C842        C849   1.465       .  S
C843        O844   1.275       .  A
C845        N846   1.359       .  A
C845        N850   1.357       .  A
C845        C894   1.467       .  S
N846        C847   1.360       .  A
C847        N848   1.357       .  A
N848        C849   1.358       .  A
C849        N850   1.356       .  A
O851        C867   1.273       .  A
O851       Zn857   2.018       .  S
C852        O868   1.273       .  A
C852        O865   1.279       .  A
O853        C866   1.273       .  A
O853       Cd860   2.059       .  S
O854        C872   1.278       .  A
O854       Cd863   2.088       .  S
O855        C869   1.274       .  A
O855       Cd859   2.056       .  S
O856        C867   1.271       .  A
O856       Cd859   2.062       .  S
Zn857       O868   2.022       .  S
Zn857       O870   2.017       .  S
Zn857       O862   1.953       .  S
O858        C869   1.277       .  A
O858       Cd863   2.092       .  S
Cd859       O861   2.070       .  S
Cd859       O862   1.997       .  S
Cd860       O864   2.065       .  S
Cd860       O873   2.052       .  S
Cd860       O862   1.999       .  S
O861        C871   1.274       .  A
O862       Cd863   2.002       .  S
Cd863       O865   2.083       .  S
O864        C871   1.274       .  A
C866        O870   1.274       .  A
C869       C1086   1.471       .  S
C872        C892   1.469       .  S
C872        O873   1.271       .  A
O874        C890   1.274       .  A
O874       Zn880   2.017       .  S
C875        O891   1.273       .  A
C875        O888   1.279       .  A
O876        C889   1.271       .  A
O876       Cd883   2.062       .  S
O877        C895   1.277       .  A
O877       Cd886   2.092       .  S
O878        C892   1.271       .  A
O878       Cd882   2.052       .  S
O879        C890   1.273       .  A
O879       Cd882   2.058       .  S
Zn880       O891   2.022       .  S
Zn880       O893   2.019       .  S
Zn880       O885   1.953       .  S
O881        C892   1.278       .  A
O881       Cd886   2.088       .  S
Cd882       O884   2.065       .  S
Cd882       O885   1.999       .  S
Cd883       O887   2.070       .  S
Cd883       O896   2.056       .  S
Cd883       O885   1.997       .  S
O884        C894   1.274       .  A
O885       Cd886   2.002       .  S
Cd886       O888   2.083       .  S
O887        C894   1.274       .  A
C889        O893   1.273       .  A
C895        C901   1.471       .  S
C895        O896   1.274       .  A
C897        N898   1.365       .  A
C897        N902   1.363       .  A
C897        C919   1.475       .  S
N898        C899   1.365       .  A
C899        N900   1.353       .  A
N900        C901   1.354       .  A
C901        N902   1.360       .  A
O903        C919   1.281       .  A
O903       Zn909   2.077       .  S
C904        C926   1.475       .  S
C904        O920   1.281       .  A
C904        O917   1.274       .  A
O905        C918   1.270       .  A
O905       Cd912   2.036       .  S
O906        C924   1.274       .  A
O906       Cd915   2.080       .  S
O907        C921   1.274       .  A
O907       Cd911   2.064       .  S
O908        C919   1.274       .  A
O908       Cd911   2.067       .  S
Zn909       O920   2.077       .  S
Zn909       O922   2.056       .  S
Zn909       O914   1.965       .  S
O910        C921   1.274       .  A
O910       Cd915   2.064       .  S
Cd911       O913   2.080       .  S
Cd911       O914   1.996       .  S
Cd912       O916   2.062       .  S
Cd912       O925   2.062       .  S
Cd912       O914   1.990       .  S
O913        C923   1.274       .  A
O914       Cd915   1.996       .  S
Cd915       O917   2.067       .  S
O916        C923   1.271       .  A
C918        O922   1.278       .  A
C924        C999   1.460       .  S
C924        O925   1.271       .  A
C926        N927   1.365       .  A
C926        N931   1.363       .  A
N927        C928   1.365       .  A
C928        N929   1.353       .  A
C928        C939   1.474       .  S
N929        C930   1.354       .  A
C930        N931   1.360       .  A
C930       C1077   1.471       .  S
C932        N933   1.358       .  A
C932        N937   1.359       .  A
C932       C1056   1.467       .  S
N933        C934   1.356       .  A
C934        N935   1.358       .  A
C934       C1004   1.465       .  S
N935        C936   1.357       .  A
C936        N937   1.360       .  A
C936        C958   1.469       .  S
O938        C954   1.274   1_455  A
O938      Zn2060   2.014   1_455  S
C939        O955   1.272       .  A
C939        O952   1.280       .  A
O940        C953   1.274       .  A
O940       Cd947   2.073       .  S
O941        C959   1.277       .  A
O941      Cd2066   2.092   1_554  S
O942       C2072   1.269       .  A
O942       Cd946   2.043       .  S
O943       C2070   1.272       .  A
O943       Cd946   2.052       .  S
Zn944      O2054   2.014       .  S
Zn944      O2071   2.014       .  S
Zn944       O957   2.007       .  S
Zn944       O949   1.948       .  S
O945        C956   1.278       .  A
O945       Cd950   2.085       .  S
Cd946       O948   2.062       .  S
Cd946       O949   2.000       .  S
Cd947       O951   2.078       .  S
Cd947       O960   2.062       .  S
Cd947       O949   1.999       .  S
O948        C958   1.273       .  A
O949      Cd2066   2.001       .  S
Cd950      O2057   2.092   1_456  S
Cd950       O952   2.091       .  S
Cd950      O2065   2.001   1_455  S
O951        C958   1.275       .  A
C953        O957   1.273       .  A
C954       O2059   1.272       .  A
O955      Zn2060   2.014   1_455  S
C956        C979   1.465   1_556  S
C956       O2058   1.269   1_455  A
C959        O960   1.275   1_554  A
O961       C2093   1.272       .  A
O961       Zn967   2.014   1_655  S
C962        O978   1.274       .  A
C962        O975   1.272       .  A
O963        C976   1.274       .  A
O963       Cd970   2.073       .  S
O964        C982   1.273       .  A
O964       Cd973   2.062       .  S
O965        C979   1.278       .  A
O965       Cd969   2.085       .  S
O966        C977   1.280       .  A
O966      Cd2085   2.091       .  S
Zn967       O978   2.014       .  S
Zn967       O980   2.008       .  S
Zn967       O972   1.948       .  S
O968        C979   1.269       .  A
O968       Cd973   2.043       .  S
Cd969      O2082   2.091   1_455  S
Cd969       O971   2.092   1_554  S
Cd969       O972   2.001       .  S
Cd970       O974   2.062       .  S
Cd970       O983   2.077       .  S
Cd970       O972   1.999       .  S
O971        C981   1.277       .  A
O972       Cd973   2.000       .  S
Cd973       O975   2.052       .  S
O974        C981   1.275   1_554  A
C976        O980   1.273       .  A
C977       C1115   1.474       .  S
C977       O2077   1.272       .  A
C982       C1032   1.469       .  S
C982        O983   1.275       .  A
C985       O1001   1.273       .  A
C985        O998   1.280       .  A
O986        C999   1.273       .  A
O986       Cd993   2.073       .  S
O987       C1005   1.278       .  A
O988       Cd992   2.054       .  S
O989       C1000   1.271       .  A
O989       Cd992   2.045       .  S
Zn990      O1003   2.016       .  S
Zn990       O995   1.953       .  S
O991       C1002   1.278       .  A
O991       Cd996   2.093       .  S
Cd992       O994   2.056       .  S
Cd992       O995   1.998       .  S
Cd993       O997   2.073       .  S
Cd993      O1006   2.057       .  S
Cd993       O995   2.000       .  S
O994       C1004   1.272       .  A
Cd996       O998   2.092       .  S
O997       C1004   1.274       .  A
C999       O1003   1.272       .  A
C1002      C1025   1.471   1_556  S
C1005      O1006   1.275   1_554  A
O1007      C1023   1.273       .  A
C1008      O1024   1.273       .  A
C1008      O1021   1.271       .  A
O1009      C1022   1.273       .  A
O1009     Cd1016   2.073       .  S
O1010      C1028   1.272       .  A
O1010     Cd1019   2.056       .  S
O1011      C1025   1.278       .  A
O1011     Cd1015   2.093       .  S
O1012      C1023   1.280       .  A
Zn1013     O1024   2.011       .  S
Zn1013     O1026   2.016       .  S
Zn1013     O1018   1.953       .  S
O1014      C1025   1.271       .  A
O1014     Cd1019   2.054       .  S
Cd1015     O1017   2.091   1_554  S
Cd1015     O1018   2.000       .  S
Cd1016     O1020   2.057       .  S
Cd1016     O1029   2.073       .  S
Cd1016     O1018   2.000       .  S
O1017      C1027   1.278       .  A
O1018     Cd1019   1.998       .  S
Cd1019     O1021   2.045       .  S
O1020      C1027   1.275   1_554  A
C1022      C1108   1.460       .  S
C1022      O1026   1.272       .  A
C1028      C1034   1.465       .  S
C1028      O1029   1.274       .  A
C1030      N1031   1.359       .  A
C1030      N1035   1.357       .  A
C1030      C1079   1.467       .  S
N1031      C1032   1.360       .  A
C1032      N1033   1.357       .  A
N1033      C1034   1.358       .  A
C1034      N1035   1.356       .  A
O1036      C1052   1.274       .  A
O1036     Zn1042   2.017       .  S
C1037      O1053   1.273       .  A
C1037      O1050   1.279       .  A
O1038      C1051   1.271       .  A
O1038     Cd1045   2.062       .  S
O1039      C1057   1.277       .  A
O1039     Cd1048   2.092   1_554  S
O1040      C1054   1.271       .  A
O1040     Cd1044   2.052       .  S
O1041      C1052   1.273       .  A
O1041     Cd1044   2.058       .  S
Zn1042     O1053   2.022       .  S
Zn1042     O1055   2.019       .  S
Zn1042     O1047   1.953       .  S
O1043      C1054   1.278       .  A
O1043     Cd1048   2.088       .  S
Cd1044     O1046   2.065       .  S
Cd1044     O1047   1.999       .  S
Cd1045     O1049   2.070       .  S
Cd1045     O1058   2.056       .  S
Cd1045     O1047   1.997       .  S
O1046      C1056   1.274       .  A
O1047     Cd1048   2.002       .  S
Cd1048     O1050   2.083       .  S
O1049      C1056   1.274       .  A
C1051      O1055   1.273       .  A
C1054      C1080   1.469   1_556  S
C1057      C1113   1.471       .  S
C1057      O1058   1.274   1_554  A
O1059      C1075   1.273       .  A
O1059     Zn1065   2.018       .  S
C1060      O1076   1.273       .  A
C1060      O1073   1.279       .  A
O1061      C1074   1.273       .  A
O1061     Cd1068   2.059       .  S
O1062      C1080   1.278       .  A
O1062     Cd1071   2.088       .  S
O1063      C1077   1.274   1_554  A
O1063     Cd1067   2.056       .  S
O1064      C1075   1.271       .  A
O1064     Cd1067   2.062       .  S
Zn1065     O1076   2.022       .  S
Zn1065     O1078   2.017       .  S
Zn1065     O1070   1.953       .  S
O1066      C1077   1.277       .  A
O1066     Cd1071   2.092   1_556  S
Cd1067     O1069   2.070       .  S
Cd1067     O1070   1.997       .  S
Cd1068     O1072   2.065       .  S
Cd1068     O1081   2.052       .  S
Cd1068     O1070   1.999       .  S
O1069      C1079   1.274       .  A
O1070     Cd1071   2.002       .  S
Cd1071     O1073   2.083       .  S
O1072      C1079   1.274       .  A
C1074      O1078   1.274       .  A
C1080      O1081   1.271       .  A
C1082      N1083   1.365       .  A
C1082      N1087   1.363       .  A
C1082      C1089   1.475       .  S
N1083      C1084   1.365       .  A
C1084      N1085   1.353       .  A
N1085      C1086   1.354       .  A
C1086      N1087   1.360       .  A
O1088      C1104   1.281       .  A
O1088     Zn1094   2.077       .  S
C1089      O1105   1.281       .  A
C1089      O1102   1.274       .  A
O1090      C1103   1.270       .  A
O1090     Cd1097   2.036       .  S
O1091      C1109   1.274       .  A
O1091     Cd1100   2.080       .  S
O1092      C1106   1.274       .  A
O1092     Cd1096   2.064       .  S
O1093      C1104   1.274       .  A
O1093     Cd1096   2.067       .  S
Zn1094     O1105   2.077       .  S
Zn1094     O1107   2.056       .  S
Zn1094     O1099   1.965       .  S
O1095      C1106   1.274       .  A
O1095     Cd1100   2.064       .  S
Cd1096     O1098   2.080       .  S
Cd1096     O1099   1.996       .  S
Cd1097     O1101   2.062       .  S
Cd1097     O1110   2.062       .  S
Cd1097     O1099   1.990       .  S
O1098      C1108   1.274       .  A
O1099     Cd1100   1.996       .  S
Cd1100     O1102   2.067       .  S
O1101      C1108   1.271       .  A
C1103      O1107   1.278       .  A
C1104      C1111   1.475       .  S
C1109      O1110   1.271       .  A
C1111      N1112   1.363       .  A
C1111      N1116   1.365       .  A
N1112      C1113   1.360       .  A
C1113      N1114   1.354       .  A
N1114      C1115   1.353       .  A
C1115      N1116   1.365       .  A
C1117      N1118   1.356       .  A
C1117      N1122   1.356       .  A
C1117      C2116   1.458       .  S
N1118      C1119   1.356       .  A
C1119      N1120   1.356       .  A
C1119      C1358   1.457       .  S
N1120      C1121   1.355       .  A
C1121      N1122   1.355       .  A
C1121      C1817   1.461       .  S
C1123      N1124   1.356       .  A
C1123      N1128   1.356       .  A
C1123      C1566   1.457       .  S
N1124      C1125   1.356       .  A
C1125      N1126   1.356       .  A
C1125      C1396   1.458       .  S
N1126      C1127   1.355       .  A
C1127      N1128   1.355       .  A
C1127      C1294   1.461       .  S
C1129      N1130   1.355       .  A
C1129      N1134   1.358       .  A
C1129      C1448   1.463       .  S
N1130      C1131   1.355       .  A
C1131      N1132   1.359       .  A
C1131      C1632   1.463       .  S
N1132      C1133   1.358       .  A
C1133      N1134   1.358       .  A
C1133      C1661   1.458       .  S
C1135      N1136   1.355       .  A
C1135      N1140   1.359       .  A
C1135      C1610   1.463       .  S
N1136      C1137   1.355       .  A
C1137      N1138   1.359       .  A
C1137      C1424   1.463       .  S
N1138      C1139   1.358       .  A
C1139      N1140   1.358       .  A
C1139      C1476   1.458       .  S
C1141      N1142   1.358       .  A
C1141      N1146   1.354       .  A
C1141      C1312   1.460       .  S
N1142      C1143   1.357       .  A
C1143      N1144   1.357       .  A
N1144      C1145   1.358       .  A
C1145      N1146   1.354       .  A
C1145      C1512   1.460       .  S
C1147      N1148   1.354       .  A
C1147      N1152   1.358       .  A
C1147      C1520   1.460       .  S
N1148      C1149   1.354       .  A
C1149      N1150   1.358       .  A
C1149      C1350   1.460       .  S
N1150      C1151   1.357       .  A
C1151      N1152   1.357       .  A
C1151      C1186   1.456       .  S
C1153      N1154   1.358       .  A
C1153      N1716   1.357       .  A
C1153      C1291   1.464       .  S
C1155      N1156   1.354       .  A
C1155      C1664   1.453       .  S
C1157      N1158   1.357       .  A
C1157      C1189   1.451       .  S
N1158      C1711   1.357   1_545  A
C1159      N1160   1.357       .  A
C1159      C1814   1.464       .  S
C1161      N1162   1.354       .  A
N1162      C1721   1.354       .  A
C1163      N1720   1.354   1_545  A
C1163      N1164   1.355       .  A
C1163      C1479   1.453       .  S
C1165      N1166   1.363       .  A
C1165      N1170   1.364       .  A
C1165      C1187   1.475       .  S
N1166      C1167   1.360       .  A
C1167      N1168   1.355       .  A
C1167      C1517   1.472       .  S
N1168      C1169   1.354       .  A
C1169      N1170   1.365       .  A
C1169      C1581   1.475       .  S
O1171      C1187   1.282       .  A
C1172      C1194   1.475       .  S
C1172      O1188   1.282       .  A
O1173      C1186   1.271       .  A
O1173     Cd1180   2.038       .  S
O1174      C1192   1.272       .  A
O1174     Cd1183   2.072       .  S
O1175      C1189   1.273       .  A
O1175     Cd1179   2.060       .  S
O1176     Cd1179   2.066       .  S
Zn1177     O1190   2.052       .  S
Zn1177     O1182   1.964       .  S
O1178      C1189   1.273       .  A
O1178     Cd1183   2.060       .  S
Cd1179     O1181   2.072       .  S
Cd1179     O1182   1.993       .  S
Cd1180     O1184   2.060       .  S
Cd1180     O1193   2.060       .  S
Cd1180     O1182   1.991       .  S
O1181      C1191   1.272       .  A
O1182     Cd1183   1.993       .  S
Cd1183     O1185   2.066       .  S
O1184      C1191   1.271       .  A
C1186      O1190   1.278       .  A
C1191      C1633   1.457       .  S
C1192      C1447   1.457       .  S
C1192      O1193   1.271       .  A
C1194      N1195   1.363       .  A
C1194      N1199   1.364       .  A
N1195      C1196   1.360       .  A
C1196      N1197   1.355       .  A
C1196      C1331   1.472       .  S
N1197      C1198   1.354       .  A
C1198      N1199   1.365       .  A
C1198      C1381   1.475       .  S
C1200      N1201   1.363       .  A
C1200      N1205   1.364       .  A
C1200      C1222   1.475       .  S
N1201      C1202   1.360       .  A
C1202      N1203   1.355       .  A
C1202      C1355   1.472       .  S
N1203      C1204   1.354       .  A
C1204      N1205   1.365       .  A
C1204      C1373   1.475       .  S
O1206      C1222   1.282       .  A
O1206     Zn1212   2.079       .  S
C1207      C1229   1.475       .  S
C1207      O1223   1.282       .  A
C1207      O1220   1.274       .  A
O1208      C1221   1.271   1_655  A
O1208     Cd1215   2.038       .  S
O1209      C1227   1.272       .  A
O1209     Cd1218   2.072   1_655  S
O1210      C1224   1.273       .  A
O1210     Cd1214   2.060       .  S
O1211      C1222   1.274       .  A
Zn1212     O1223   2.079       .  S
Zn1212     O1225   2.052       .  S
O1213      C1224   1.273       .  A
O1213     Cd1218   2.060       .  S
Cd1214     O1216   2.072   1_455  S
Cd1214     O1217   1.993       .  S
Cd1215     O1219   2.060       .  S
Cd1215     O1228   2.060       .  S
Cd1215     O1217   1.991   1_655  S
O1216      C1226   1.272       .  A
O1217     Cd1218   1.993       .  S
O1219      C1226   1.271       .  A
C1226      C1425   1.457       .  S
C1227      C1609   1.457       .  S
C1227      O1228   1.271       .  A
C1229      N1230   1.363       .  A
C1229      N1234   1.364       .  A
N1230      C1231   1.360       .  A
C1231      N1232   1.355       .  A
C1231      C1539   1.472       .  S
N1232      C1233   1.354       .  A
C1233      N1234   1.365       .  A
C1233      C1543   1.475       .  S
C1235      N1236   1.365       .  A
C1235      N1240   1.363       .  A
C1235      C1242   1.479       .  S
N1236      C1237   1.367       .  A
C1237      N1238   1.355       .  A
C1237      C1410   1.473       .  S
N1238      C1239   1.353       .  A
C1239      N1240   1.356       .  A
C1239      C1401   1.469       .  S
O1241      C1257   1.282       .  A
O1241     Zn1247   2.078       .  S
C1242      O1258   1.282       .  A
C1242      O1255   1.274       .  A
O1243      C1256   1.273   1_545  A
O1243     Cd1250   2.047       .  S
O1244      C1262   1.273       .  A
O1244     Cd1253   2.074   1_545  S
O1245      C1259   1.273       .  A
O1245     Cd1249   2.058       .  S
O1246      C1257   1.274       .  A
O1246     Cd1807   2.051       .  S
Zn1247     O1258   2.078       .  S
Zn1247     O1260   2.033       .  S
Zn1247     O1810   1.969       .  S
O1248      C1259   1.273       .  A
O1248     Cd1253   2.058       .  S
Cd1249     O1804   2.051       .  S
Cd1249     O1251   2.073   1_565  S
Cd1249     O1252   1.991       .  S
Cd1250     O1254   2.056       .  S
Cd1250     O1263   2.057       .  S
Cd1250     O1252   1.992   1_545  S
O1251      C1261   1.273       .  A
O1252     Zn1805   1.969       .  S
O1252     Cd1253   1.991       .  S
Cd1253     O1813   2.051       .  S
O1254      C1261   1.272       .  A
O1255     Cd1811   2.051       .  S
C1256      C1717   1.464       .  S
C1256      O1818   1.277       .  A
C1257      C1264   1.479       .  S
C1259      C1679   1.461       .  S
O1260      C1814   1.277       .  A
C1261      C1511   1.467       .  S
C1262      C1326   1.467       .  S
C1262      O1263   1.272       .  A
C1264      N1265   1.365       .  A
C1264      N1269   1.363       .  A
N1265      C1266   1.367       .  A
C1266      N1267   1.355       .  A
C1266      C1595   1.473       .  S
N1267      C1268   1.353       .  A
C1268      N1269   1.356       .  A
C1268      C1585   1.469       .  S
C1270      N1271   1.363       .  A
C1270      N1275   1.365       .  A
C1270      C1277   1.479       .  S
N1271      C1272   1.356       .  A
C1272      N1273   1.353       .  A
C1272      C1563   1.469       .  S
N1273      C1274   1.355       .  A
C1274      N1275   1.367       .  A
C1274      C1618   1.473       .  S
O1276      C1292   1.282       .  A
O1276     Zn1840   2.078       .  S
C1277      O1293   1.282       .  A
C1277      O1848   1.274       .  A
O1278      C1291   1.273       .  A
O1278     Cd1285   2.047       .  S
O1279      C1297   1.273       .  A
O1279     Cd1288   2.074       .  S
O1280      C1294   1.273       .  A
O1280     Cd1284   2.057       .  S
O1281      C1850   1.274       .  A
O1281     Cd1284   2.051       .  S
Zn1282     O1834   2.078       .  S
Zn1282     O1851   2.078       .  S
Zn1282     O1295   2.033       .  S
Zn1282     O1287   1.969       .  S
O1283      C1294   1.273       .  A
O1283     Cd1288   2.058       .  S
Cd1284     O1286   2.073       .  S
Cd1284     O1287   1.991       .  S
Cd1285     O1289   2.057       .  S
Cd1285     O1298   2.057       .  S
Cd1285     O1287   1.992       .  S
O1286      C1296   1.273       .  A
O1287     Cd1288   1.991       .  S
Cd1288     O1290   2.052       .  S
O1289      C1296   1.272       .  A
O1290      C1835   1.274       .  A
C1291      O1295   1.277       .  A
C1292      C1299   1.479       .  S
C1292      O1839   1.274       .  A
O1293     Zn1840   2.078       .  S
C1296      C1349   1.467       .  S
C1297      C1534   1.467       .  S
C1297      O1298   1.272       .  A
C1299      N1300   1.365       .  A
C1299      N1304   1.363       .  A
N1300      C1301   1.367       .  A
C1301      N1302   1.355       .  A
C1301      C1433   1.473       .  S
N1302      C1303   1.353       .  A
C1303      N1304   1.356       .  A
C1303      C1377   1.469       .  S
C1305      N1306   1.359       .  A
C1305      N1310   1.357       .  A
C1305      C1429   1.467       .  S
N1306      C1307   1.360       .  A
C1307      N1308   1.357       .  A
C1307      C1332   1.469       .  S
N1308      C1309   1.358       .  A
C1309      N1310   1.356       .  A
C1309      C1378   1.465       .  S
O1311      C1327   1.272       .  A
C1312      O1328   1.274       .  A
O1313      C1326   1.274       .  A
O1313     Cd1320   2.073       .  S
O1314      C1332   1.273       .  A
O1314     Cd1323   2.062       .  S
O1315      C1329   1.278       .  A
O1315     Cd1319   2.085       .  S
O1316      C1327   1.280       .  A
O1316     Cd1319   2.091       .  S
Zn1317     O1330   2.008       .  S
Zn1317     O1322   1.948       .  S
O1318     Cd1323   2.043       .  S
Cd1320     O1324   2.062       .  S
Cd1320     O1333   2.078       .  S
Cd1320     O1322   1.999       .  S
O1321      C1331   1.277       .  A
O1322     Cd1323   2.000       .  S
Cd1323     O1325   2.052       .  S
O1324      C1331   1.275       .  A
C1326      O1330   1.273       .  A
C1327      C1457   1.474       .  S
C1329      C1352   1.465       .  S
C1332      O1333   1.275       .  A
O1334      C1350   1.274       .  A
O1334     Zn1340   2.014       .  S
C1335      C1642   1.474       .  S
C1335      O1348   1.280       .  A
O1336      C1349   1.274       .  A
O1336     Cd1343   2.073       .  S
O1337      C1355   1.277       .  A
O1337     Cd1346   2.092       .  S
O1338      C1352   1.269       .  A
O1338     Cd1342   2.043       .  S
O1339      C1350   1.272       .  A
O1339     Cd1342   2.052       .  S
Zn1340     O1351   2.014       .  S
Zn1340     O1353   2.007       .  S
Zn1340     O1345   1.948       .  S
O1341      C1352   1.278       .  A
O1341     Cd1346   2.085       .  S
Cd1342     O1344   2.062       .  S
Cd1342     O1345   2.000       .  S
Cd1343     O1347   2.078       .  S
Cd1343     O1356   2.062       .  S
Cd1343     O1345   1.999       .  S
O1344      C1354   1.273       .  A
O1345     Cd1346   2.001       .  S
O1347      C1354   1.275       .  A
C1349      O1353   1.273       .  A
C1354      C1405   1.469       .  S
C1355      O1356   1.275       .  A
O1357      C1373   1.273       .  A
O1357     Zn1921   2.017       .  S
C1358      O1374   1.273       .  A
C1358      O1929   1.271       .  A
O1359      C1372   1.273       .  A
O1359     Cd1366   2.073       .  S
O1360      C1378   1.272       .  A
O1360     Cd1369   2.056       .  S
O1361      C1375   1.278       .  A
O1361     Cd1365   2.093       .  S
O1362      C1373   1.280       .  A
O1362     Cd1365   2.092       .  S
Zn1363     O1915   2.017   1_545  S
Zn1363     O1932   2.011       .  S
Zn1363     O1376   2.015       .  S
Zn1363     O1368   1.953       .  S
O1364      C1933   1.271   1_545  A
O1364     Cd1369   2.054       .  S
Cd1365     O1925   2.091       .  S
Cd1365     O1926   2.001       .  S
Cd1366     O1370   2.057       .  S
Cd1366     O1379   2.073       .  S
Cd1366     O1368   2.000       .  S
O1367      C1377   1.278       .  A
O1367     Cd1923   2.091   1_545  S
O1368     Cd1923   2.001   1_545  S
O1368     Cd1369   1.998       .  S
Cd1369     O1371   2.045       .  S
O1370      C1377   1.275       .  A
O1371      C1916   1.271       .  A
C1372      C1481   1.460       .  S
C1372      O1376   1.272       .  A
O1374     Zn1921   2.011       .  S
C1375      C1398   1.471       .  S
C1375      O1922   1.271       .  A
C1378      O1379   1.274       .  A
O1380      C1396   1.273       .  A
O1380     Zn1386   2.011       .  S
C1381      O1397   1.273       .  A
C1381      O1394   1.280       .  A
O1382      C1395   1.273       .  A
O1382     Cd1389   2.073       .  S
O1383      C1401   1.278       .  A
O1383     Cd1392   2.091       .  S
O1384      C1398   1.271       .  A
O1384     Cd1388   2.054       .  S
O1385      C1396   1.271       .  A
O1385     Cd1388   2.045       .  S
Zn1386     O1955   2.017       .  S
Zn1386     O1399   2.016       .  S
Zn1386     O1391   1.953       .  S
O1387      C1398   1.278       .  A
O1387     Cd1392   2.093       .  S
Cd1388     O1390   2.056       .  S
Cd1388     O1391   1.998       .  S
Cd1389     O1393   2.073       .  S
Cd1389     O1402   2.057       .  S
Cd1389     O1391   2.000       .  S
O1390      C1400   1.272       .  A
O1391     Cd1392   2.001       .  S
Cd1392     O1952   2.092       .  S
O1393      C1400   1.274       .  A
O1394     Cd1950   2.092   1_545  S
C1395      C1667   1.460       .  S
C1395      O1399   1.272       .  A
O1397     Zn1944   2.017   1_545  S
C1400      C1407   1.465       .  S
C1401      O1402   1.275       .  A
C1403      N1404   1.359       .  A
C1403      N1408   1.357       .  A
C1403      C1452   1.467       .  S
N1404      C1405   1.360       .  A
C1405      N1406   1.357       .  A
N1406      C1407   1.358       .  A
C1407      N1408   1.356       .  A
O1409      C1425   1.273       .  A
O1409     Zn1415   2.018       .  S
C1410      O1426   1.273       .  A
C1410      O1423   1.279       .  A
O1411      C1424   1.273       .  A
O1411     Cd1418   2.059       .  S
O1412      C1430   1.278       .  A
O1412     Cd1421   2.088       .  S
O1413      C1427   1.274       .  A
O1413     Cd1417   2.056       .  S
O1414      C1425   1.271       .  A
O1414     Cd1417   2.062       .  S
Zn1415     O1426   2.022       .  S
Zn1415     O1428   2.017       .  S
Zn1415     O1420   1.953       .  S
O1416      C1427   1.277       .  A
O1416     Cd1421   2.092       .  S
Cd1417     O1419   2.070       .  S
Cd1417     O1420   1.997       .  S
Cd1418     O1422   2.065       .  S
Cd1418     O1431   2.052       .  S
Cd1418     O1420   1.999       .  S
O1419      C1429   1.274       .  A
O1420     Cd1421   2.002       .  S
Cd1421     O1423   2.083       .  S
O1422      C1429   1.274       .  A
C1424      O1428   1.274       .  A
C1427      C1644   1.471       .  S
C1430      C1450   1.469       .  S
C1430      O1431   1.271       .  A
O1432      C1448   1.274       .  A
O1432     Zn1438   2.017       .  S
C1433      O1449   1.273       .  A
C1433      O1446   1.279       .  A
O1434      C1447   1.271       .  A
O1434     Cd1441   2.062       .  S
O1435      C1453   1.277       .  A
O1435     Cd1444   2.092       .  S
O1436      C1450   1.271       .  A
O1436     Cd1440   2.052       .  S
O1437      C1448   1.273       .  A
O1437     Cd1440   2.058       .  S
Zn1438     O1449   2.022       .  S
Zn1438     O1451   2.019       .  S
Zn1438     O1443   1.953       .  S
O1439      C1450   1.278       .  A
O1439     Cd1444   2.088       .  S
Cd1440     O1442   2.065       .  S
Cd1440     O1443   1.999       .  S
Cd1441     O1445   2.070       .  S
Cd1441     O1454   2.056       .  S
Cd1441     O1443   1.997       .  S
O1442      C1452   1.274       .  A
O1443     Cd1444   2.002       .  S
Cd1444     O1446   2.083       .  S
O1445      C1452   1.274       .  A
C1447      O1451   1.273       .  A
C1453      C1459   1.471       .  S
C1453      O1454   1.274       .  A
C1455      N1456   1.365       .  A
C1455      N1460   1.363       .  A
C1455      C1477   1.475       .  S
N1456      C1457   1.365       .  A
C1457      N1458   1.353       .  A
N1458      C1459   1.354       .  A
C1459      N1460   1.360       .  A
O1461      C1477   1.281       .  A
O1461     Zn1467   2.077       .  S
C1462      C1484   1.475       .  S
C1462      O1478   1.281       .  A
C1462      O1475   1.274       .  A
O1463      C1476   1.270       .  A
O1463     Cd1470   2.036       .  S
O1464      C1482   1.274       .  A
O1464     Cd1473   2.080       .  S
O1465      C1479   1.274       .  A
O1465     Cd1469   2.064       .  S
O1466      C1477   1.274       .  A
O1466     Cd1469   2.067       .  S
Zn1467     O1478   2.077       .  S
Zn1467     O1480   2.056       .  S
Zn1467     O1472   1.965       .  S
O1468      C1479   1.274       .  A
O1468     Cd1473   2.064       .  S
Cd1469     O1471   2.080       .  S
Cd1469     O1472   1.996       .  S
Cd1470     O1474   2.062       .  S
Cd1470     O1483   2.062       .  S
Cd1470     O1472   1.990       .  S
O1471      C1481   1.274       .  A
O1472     Cd1473   1.996       .  S
Cd1473     O1475   2.067       .  S
O1474      C1481   1.271       .  A
C1476      O1480   1.278       .  A
C1482      C1557   1.460       .  S
C1482      O1483   1.271       .  A
C1484      N1485   1.365       .  A
C1484      N1489   1.363       .  A
N1485      C1486   1.365       .  A
C1486      N1487   1.353       .  A
C1486      C1497   1.474       .  S
N1487      C1488   1.354       .  A
C1488      N1489   1.360       .  A
C1488      C1635   1.471       .  S
C1490      N1491   1.358       .  A
C1490      N1495   1.359       .  A
C1490      C1614   1.467       .  S
N1491      C1492   1.356       .  A
C1492      N1493   1.358       .  A
C1492      C1562   1.465       .  S
N1493      C1494   1.357       .  A
C1494      N1495   1.360       .  A
C1494      C1516   1.469       .  S
O1496      C1512   1.274       .  A
C1497      O1513   1.272       .  A
C1497      O1510   1.280       .  A
O1498      C1511   1.274       .  A
O1498     Cd1505   2.073       .  S
O1499      C1517   1.277       .  A
O1500     Cd1504   2.043       .  S
O1501     Cd1504   2.052       .  S
Zn1502     O1515   2.007       .  S
Zn1502     O1507   1.948       .  S
O1503      C1514   1.278       .  A
O1503     Cd1508   2.085       .  S
Cd1504     O1506   2.062       .  S
Cd1504     O1507   2.000       .  S
Cd1505     O1509   2.078       .  S
Cd1505     O1518   2.062       .  S
Cd1505     O1507   1.999       .  S
O1506      C1516   1.273       .  A
Cd1508     O1510   2.091       .  S
O1509      C1516   1.275       .  A
C1511      O1515   1.273       .  A
C1514      C1537   1.465   1_556  S
C1517      O1518   1.275   1_554  A
O1519     Zn1525   2.014       .  S
C1520      O1536   1.274       .  A
C1520      O1533   1.272       .  A
O1521      C1534   1.274       .  A
O1521     Cd1528   2.073       .  S
O1522      C1540   1.273       .  A
O1522     Cd1531   2.062       .  S
O1523      C1537   1.278       .  A
O1523     Cd1527   2.085       .  S
O1524      C1535   1.280       .  A
Zn1525     O1536   2.014       .  S
Zn1525     O1538   2.008       .  S
Zn1525     O1530   1.948       .  S
O1526      C1537   1.269       .  A
O1526     Cd1531   2.043       .  S
Cd1527     O1529   2.092   1_554  S
Cd1527     O1530   2.001       .  S
Cd1528     O1532   2.062       .  S
Cd1528     O1541   2.077       .  S
Cd1528     O1530   1.999       .  S
O1529      C1539   1.277       .  A
O1530     Cd1531   2.000       .  S
Cd1531     O1533   2.052       .  S
O1532      C1539   1.275   1_554  A
C1534      O1538   1.273       .  A
C1535      C1673   1.474       .  S
C1540      C1590   1.469       .  S
C1540      O1541   1.275       .  A
O1542      C2116   1.273       .  A
O1542     Zn2106   2.011       .  S
C1543      O1559   1.273       .  A
C1543      O1556   1.280       .  A
O1544      C1557   1.273       .  A
O1544     Cd1551   2.073       .  S
O1545      C1563   1.278       .  A
O1545     Cd2112   2.091   1_544  S
O1546      C2118   1.271   1_545  A
O1546     Cd1550   2.054       .  S
O1547      C1558   1.271       .  A
O1547     Cd1550   2.045       .  S
Zn1548     O2100   2.011       .  S
Zn1548     O2117   2.017   1_545  S
Zn1548     O1561   2.016       .  S
Zn1548     O1553   1.953       .  S
O1549      C1560   1.278       .  A
O1549     Cd1554   2.093       .  S
Cd1550     O1552   2.056       .  S
Cd1550     O1553   1.998       .  S
Cd1551     O1555   2.073       .  S
Cd1551     O1564   2.057       .  S
Cd1551     O1553   2.000       .  S
O1552      C1562   1.272       .  A
O1553     Cd2112   2.001   1_545  S
Cd1554     O2103   2.091   1_556  S
Cd1554     O1556   2.092       .  S
Cd1554     O2111   2.001       .  S
O1555      C1562   1.274       .  A
C1557      O1561   1.272       .  A
C1558      C1675   1.458       .  S
C1558      O2100   1.273       .  A
O1559     Zn2106   2.017       .  S
C1560      C1583   1.471   1_556  S
C1560      O2104   1.271       .  A
C1563      O1564   1.275   1_554  A
O1565      C1581   1.273       .  A
O1565     Zn2129   2.017   1_545  S
C1566      O1582   1.273       .  A
C1566      O1579   1.271       .  A
O1567      C1580   1.273       .  A
O1567     Cd1574   2.073       .  S
O1568      C1586   1.272       .  A
O1568     Cd1577   2.056       .  S
O1569      C1583   1.278       .  A
O1569     Cd1573   2.093       .  S
O1570      C1581   1.280       .  A
O1570     Cd2131   2.092   1_545  S
Zn1571     O2123   2.017       .  S
Zn1571     O1582   2.011       .  S
Zn1571     O1584   2.016       .  S
Zn1571     O1576   1.953       .  S
O1572      C1583   1.271       .  A
O1572     Cd1577   2.054       .  S
Cd1573     O2128   2.092       .  S
Cd1573     O1575   2.091   1_554  S
Cd1573     O1576   2.000       .  S
Cd1574     O1578   2.057       .  S
Cd1574     O1587   2.073       .  S
Cd1574     O1576   2.000       .  S
O1575      C1585   1.278       .  A
O1576     Cd1577   1.998       .  S
Cd1577     O1579   2.045       .  S
O1578      C1585   1.275   1_554  A
C1580      C1666   1.460       .  S
C1580      O1584   1.272       .  A
C1586      C1592   1.465       .  S
C1586      O1587   1.274       .  A
C1588      N1589   1.359       .  A
C1588      N1593   1.357       .  A
C1588      C1637   1.467       .  S
N1589      C1590   1.360       .  A
C1590      N1591   1.357       .  A
N1591      C1592   1.358       .  A
C1592      N1593   1.356       .  A
O1594      C1610   1.274       .  A
O1594     Zn1600   2.017       .  S
C1595      O1611   1.273       .  A
C1595      O1608   1.279       .  A
O1596      C1609   1.271       .  A
O1596     Cd1603   2.062       .  S
O1597      C1615   1.277       .  A
O1597     Cd1606   2.092   1_554  S
O1598      C1612   1.271       .  A
O1598     Cd1602   2.052       .  S
O1599      C1610   1.273       .  A
O1599     Cd1602   2.058       .  S
Zn1600     O1611   2.022       .  S
Zn1600     O1613   2.019       .  S
Zn1600     O1605   1.953       .  S
O1601      C1612   1.278       .  A
O1601     Cd1606   2.088       .  S
Cd1602     O1604   2.065       .  S
Cd1602     O1605   1.999       .  S
Cd1603     O1607   2.070       .  S
Cd1603     O1616   2.056       .  S
Cd1603     O1605   1.997       .  S
O1604      C1614   1.274       .  A
O1605     Cd1606   2.002       .  S
Cd1606     O1608   2.083       .  S
O1607      C1614   1.274       .  A
C1609      O1613   1.273       .  A
C1612      C1638   1.469   1_556  S
C1615      C1671   1.471       .  S
C1615      O1616   1.274   1_554  A
O1617      C1633   1.273       .  A
O1617     Zn1623   2.018       .  S
C1618      O1634   1.273       .  A
C1618      O1631   1.279       .  A
O1619      C1632   1.273       .  A
O1619     Cd1626   2.059       .  S
O1620      C1638   1.278       .  A
O1620     Cd1629   2.088       .  S
O1621      C1635   1.274   1_554  A
O1621     Cd1625   2.056       .  S
O1622      C1633   1.271       .  A
O1622     Cd1625   2.062       .  S
Zn1623     O1634   2.022       .  S
Zn1623     O1636   2.017       .  S
Zn1623     O1628   1.953       .  S
O1624      C1635   1.277       .  A
O1624     Cd1629   2.092   1_556  S
Cd1625     O1627   2.070       .  S
Cd1625     O1628   1.997       .  S
Cd1626     O1630   2.065       .  S
Cd1626     O1639   2.052       .  S
Cd1626     O1628   1.999       .  S
O1627      C1637   1.274       .  A
O1628     Cd1629   2.002       .  S
Cd1629     O1631   2.083       .  S
O1630      C1637   1.274       .  A
C1632      O1636   1.274       .  A
C1638      O1639   1.271       .  A
C1640      N1641   1.365       .  A
C1640      N1645   1.363       .  A
C1640      C1647   1.475       .  S
N1641      C1642   1.365       .  A
C1642      N1643   1.353       .  A
N1643      C1644   1.354       .  A
C1644      N1645   1.360       .  A
O1646      C1662   1.281       .  A
O1646     Zn1652   2.077       .  S
C1647      O1663   1.281       .  A
C1647      O1660   1.274       .  A
O1648      C1661   1.270       .  A
O1648     Cd1655   2.036       .  S
O1649      C1667   1.274       .  A
O1649     Cd1658   2.080       .  S
O1650      C1664   1.274       .  A
O1650     Cd1654   2.064       .  S
O1651      C1662   1.274       .  A
O1651     Cd1654   2.067       .  S
Zn1652     O1663   2.077       .  S
Zn1652     O1665   2.056       .  S
Zn1652     O1657   1.965       .  S
O1653      C1664   1.274       .  A
O1653     Cd1658   2.064       .  S
Cd1654     O1656   2.080       .  S
Cd1654     O1657   1.996       .  S
Cd1655     O1659   2.062       .  S
Cd1655     O1668   2.062       .  S
Cd1655     O1657   1.990       .  S
O1656      C1666   1.274       .  A
O1657     Cd1658   1.996       .  S
Cd1658     O1660   2.067       .  S
O1659      C1666   1.271       .  A
C1661      O1665   1.278       .  A
C1662      C1669   1.475       .  S
C1667      O1668   1.271       .  A
C1669      N1670   1.363       .  A
C1669      N1674   1.365       .  A
N1670      C1671   1.360       .  A
C1671      N1672   1.354       .  A
N1672      C1673   1.353       .  A
C1673      N1674   1.365       .  A
C1675      N1676   1.356       .  A
C1675      N1680   1.356   1_545  A
N1676      C1677   1.356       .  A
C1677      N1678   1.356   1_545  A
C1677      C1916   1.457       .  S
N1678      C1679   1.355       .  A
C1679      N1680   1.355       .  A
C1681      N1682   1.356       .  A
C1681      N1686   1.356       .  A
C1681      C2124   1.457       .  S
N1682      C1683   1.356       .  A
C1683      N1684   1.356       .  A
C1683      C1954   1.458       .  S
N1684      C1685   1.355       .  A
C1685      N1686   1.355       .  A
C1685      C1852   1.461       .  S
C1687      N1688   1.355       .  A
C1687      N1692   1.358       .  A
C1687      C2006   1.463       .  S
N1688      C1689   1.355       .  A
C1689      N1690   1.359       .  A
C1689      C2190   1.463       .  S
N1690      C1691   1.358       .  A
C1691      N1692   1.358       .  A
C1691      C2219   1.458       .  S
C1693      N1694   1.355       .  A
C1693      N1698   1.359       .  A
C1693      C2168   1.463       .  S
N1694      C1695   1.355       .  A
C1695      N1696   1.359       .  A
C1695      C1982   1.463       .  S
N1696      C1697   1.358       .  A
C1697      N1698   1.358       .  A
C1697      C2034   1.458       .  S
C1699      N1700   1.358       .  A
C1699      N1704   1.354       .  A
C1699      C1870   1.460       .  S
N1700      C1701   1.357       .  A
C1701      N1702   1.357       .  A
N1702      C1703   1.358       .  A
C1703      N1704   1.354       .  A
C1703      C2070   1.460       .  S
C1705      N1706   1.354       .  A
C1705      N1710   1.358       .  A
C1705      C2078   1.460       .  S
N1706      C1707   1.354       .  A
C1707      N1708   1.358       .  A
C1707      C1908   1.460       .  S
N1708      C1709   1.357       .  A
C1709      N1710   1.357       .  A
C1709      C1744   1.456       .  S
C1711      N1712   1.358       .  A
C1711      C1849   1.464       .  S
C1713      N1714   1.354       .  A
C1713      C2222   1.453       .  S
C1715      N1716   1.357       .  A
C1715      C1747   1.451       .  S
C1717      N1718   1.357       .  A
C1719      N1720   1.354       .  A
C1721      N1722   1.355       .  A
C1721      C2037   1.453       .  S
C1723      N1724   1.363       .  A
C1723      N1728   1.364       .  A
C1723      C1745   1.475       .  S
N1724      C1725   1.360       .  A
C1725      N1726   1.355       .  A
C1725      C2075   1.472       .  S
N1726      C1727   1.354       .  A
C1727      N1728   1.365       .  A
C1727      C2139   1.475       .  S
O1729      C1745   1.282       .  A
C1730      C1752   1.475       .  S
C1730      O1746   1.282       .  A
O1731      C1744   1.271       .  A
O1731     Cd1738   2.038       .  S
O1732      C1750   1.272       .  A
O1732     Cd1741   2.072       .  S
O1733      C1747   1.273       .  A
O1733     Cd1737   2.060       .  S
O1734     Cd1737   2.066       .  S
Zn1735     O1748   2.052       .  S
Zn1735     O1740   1.964       .  S
O1736      C1747   1.273       .  A
O1736     Cd1741   2.060       .  S
Cd1737     O1739   2.072       .  S
Cd1737     O1740   1.993       .  S
Cd1738     O1742   2.060       .  S
Cd1738     O1751   2.060       .  S
Cd1738     O1740   1.991       .  S
O1739      C1749   1.272       .  A
O1740     Cd1741   1.993       .  S
Cd1741     O1743   2.066       .  S
O1742      C1749   1.271       .  A
C1744      O1748   1.278       .  A
C1749      C2191   1.457       .  S
C1750      C2005   1.457       .  S
C1750      O1751   1.271       .  A
C1752      N1753   1.363       .  A
C1752      N1757   1.364       .  A
N1753      C1754   1.360       .  A
C1754      N1755   1.355       .  A
C1754      C1889   1.472       .  S
N1755      C1756   1.354       .  A
C1756      N1757   1.365       .  A
C1756      C1939   1.475       .  S
C1758      N1759   1.363       .  A
C1758      N1763   1.364       .  A
C1758      C1780   1.475       .  S
N1759      C1760   1.360       .  A
C1760      N1761   1.355       .  A
C1760      C1913   1.472       .  S
N1761      C1762   1.354       .  A
C1762      N1763   1.365       .  A
C1762      C1931   1.475       .  S
O1764      C1780   1.282       .  A
O1764     Zn1770   2.079       .  S
C1765      C1787   1.475       .  S
C1765      O1781   1.282       .  A
C1765      O1778   1.274       .  A
O1766      C1779   1.271   1_655  A
O1766     Cd1773   2.038       .  S
O1767      C1785   1.272       .  A
O1767     Cd1776   2.072   1_655  S
O1768      C1782   1.273       .  A
O1768     Cd1772   2.060       .  S
O1769      C1780   1.274       .  A
Zn1770     O1781   2.079       .  S
Zn1770     O1783   2.052       .  S
O1771      C1782   1.273       .  A
O1771     Cd1776   2.060       .  S
Cd1772     O1774   2.072   1_455  S
Cd1772     O1775   1.993       .  S
Cd1773     O1777   2.060       .  S
Cd1773     O1786   2.060       .  S
Cd1773     O1775   1.991   1_655  S
O1774      C1784   1.272       .  A
O1775     Cd1776   1.993       .  S
O1777      C1784   1.271       .  A
C1784      C1983   1.457       .  S
C1785      C2167   1.457       .  S
C1785      O1786   1.271       .  A
C1787      N1788   1.363       .  A
C1787      N1792   1.364       .  A
N1788      C1789   1.360       .  A
C1789      N1790   1.355       .  A
C1789      C2097   1.472       .  S
N1790      C1791   1.354       .  A
C1791      N1792   1.365       .  A
C1791      C2101   1.475       .  S
C1793      N1794   1.365       .  A
C1793      N1798   1.363       .  A
C1793      C1800   1.479       .  S
N1794      C1795   1.367       .  A
C1795      N1796   1.355       .  A
C1795      C1968   1.473       .  S
N1796      C1797   1.353       .  A
C1797      N1798   1.356       .  A
C1797      C1959   1.469       .  S
O1799      C1815   1.282       .  A
O1799     Zn1805   2.078       .  S
C1800      O1816   1.282       .  A
C1800      O1813   1.274       .  A
O1801      C1814   1.273       .  A
O1801     Cd1808   2.047       .  S
O1802      C1820   1.273       .  A
O1802     Cd1811   2.074       .  S
O1803      C1817   1.273       .  A
O1803     Cd1807   2.058       .  S
O1804      C1815   1.274       .  A
Zn1805     O1816   2.078       .  S
Zn1805     O1818   2.033       .  S
O1806      C1817   1.273       .  A
O1806     Cd1811   2.058       .  S
Cd1807     O1809   2.073       .  S
Cd1807     O1810   1.991       .  S
Cd1808     O1812   2.056       .  S
Cd1808     O1821   2.057       .  S
Cd1808     O1810   1.992       .  S
O1809      C1819   1.273       .  A
O1810     Cd1811   1.991       .  S
O1812      C1819   1.272       .  A
C1815      C1822   1.479       .  S
C1819      C2069   1.467       .  S
C1820      C1884   1.467       .  S
C1820      O1821   1.272       .  A
C1822      N1823   1.365       .  A
C1822      N1827   1.363       .  A
N1823      C1824   1.367       .  A
C1824      N1825   1.355       .  A
C1824      C2153   1.473       .  S
N1825      C1826   1.353       .  A
C1826      N1827   1.356       .  A
C1826      C2143   1.469       .  S
C1828      N1829   1.363       .  A
C1828      N1833   1.365       .  A
C1828      C1835   1.479       .  S
N1829      C1830   1.356       .  A
C1830      N1831   1.353       .  A
C1830      C2121   1.469       .  S
N1831      C1832   1.355       .  A
C1832      N1833   1.367       .  A
C1832      C2176   1.473       .  S
O1834      C1850   1.282       .  A
C1835      O1851   1.282       .  A
O1836      C1849   1.273       .  A
O1836     Cd1843   2.047       .  S
O1837      C1855   1.273       .  A
O1837     Cd1846   2.074       .  S
O1838      C1852   1.273       .  A
O1838     Cd1842   2.057       .  S
O1839     Cd1842   2.051   1_545  S
Zn1840     O1853   2.033       .  S
Zn1840     O1845   1.969   1_545  S
O1841      C1852   1.273       .  A
O1841     Cd1846   2.058       .  S
Cd1842     O1844   2.073       .  S
Cd1842     O1845   1.991       .  S
Cd1843     O1847   2.057       .  S
Cd1843     O1856   2.056       .  S
Cd1843     O1845   1.992       .  S
O1844      C1854   1.273       .  A
O1845     Cd1846   1.991       .  S
Cd1846     O1848   2.052   1_565  S
O1847      C1854   1.272       .  A
C1849      O1853   1.277   1_565  A
C1850      C1857   1.479       .  S
C1854      C1907   1.467       .  S
C1855      C2092   1.467       .  S
C1855      O1856   1.272       .  A
C1857      N1858   1.365       .  A
C1857      N1862   1.363       .  A
N1858      C1859   1.367       .  A
C1859      N1860   1.355       .  A
C1859      C1991   1.473       .  S
N1860      C1861   1.353       .  A
C1861      N1862   1.356       .  A
C1861      C1935   1.469       .  S
C1863      N1864   1.359       .  A
C1863      N1868   1.357       .  A
C1863      C1987   1.467       .  S
N1864      C1865   1.360       .  A
C1865      N1866   1.357       .  A
C1865      C1890   1.469       .  S
N1866      C1867   1.358       .  A
C1867      N1868   1.356       .  A
C1867      C1936   1.465       .  S
O1869      C1885   1.272       .  A
C1870      O1886   1.274       .  A
O1871      C1884   1.274       .  A
O1871     Cd1878   2.073       .  S
O1872      C1890   1.273       .  A
O1872     Cd1881   2.062       .  S
O1873      C1887   1.278       .  A
O1873     Cd1877   2.085       .  S
O1874      C1885   1.280       .  A
O1874     Cd1877   2.091       .  S
Zn1875     O1888   2.008       .  S
Zn1875     O1880   1.948       .  S
O1876     Cd1881   2.043       .  S
Cd1878     O1882   2.062       .  S
Cd1878     O1891   2.078       .  S
Cd1878     O1880   1.999       .  S
O1879      C1889   1.277       .  A
O1880     Cd1881   2.000       .  S
Cd1881     O1883   2.052       .  S
O1882      C1889   1.275       .  A
C1884      O1888   1.273       .  A
C1885      C2015   1.474       .  S
C1887      C1910   1.465       .  S
C1890      O1891   1.275       .  A
O1892      C1908   1.274       .  A
O1892     Zn1898   2.014       .  S
C1893      C2200   1.474       .  S
C1893      O1906   1.280       .  A
O1894      C1907   1.274       .  A
O1894     Cd1901   2.073       .  S
O1895      C1913   1.277       .  A
O1895     Cd1904   2.092       .  S
O1896      C1910   1.269       .  A
O1896     Cd1900   2.043       .  S
O1897      C1908   1.272       .  A
O1897     Cd1900   2.052       .  S
Zn1898     O1909   2.014       .  S
Zn1898     O1911   2.007       .  S
Zn1898     O1903   1.948       .  S
O1899      C1910   1.278       .  A
O1899     Cd1904   2.085       .  S
Cd1900     O1902   2.062       .  S
Cd1900     O1903   2.000       .  S
Cd1901     O1905   2.078       .  S
Cd1901     O1914   2.062       .  S
Cd1901     O1903   1.999       .  S
O1902      C1912   1.273       .  A
O1903     Cd1904   2.001       .  S
O1905      C1912   1.275       .  A
C1907      O1911   1.273       .  A
C1912      C1963   1.469       .  S
C1913      O1914   1.275       .  A
O1915      C1931   1.273       .  A
C1916      O1932   1.273       .  A
O1917      C1930   1.273       .  A
O1917     Cd1924   2.073       .  S
O1918      C1936   1.272       .  A
O1918     Cd1927   2.056       .  S
O1919      C1933   1.278       .  A
O1919     Cd1923   2.093       .  S
O1920      C1931   1.280       .  A
O1920     Cd1923   2.092       .  S
Zn1921     O1934   2.015       .  S
Zn1921     O1926   1.953       .  S
O1922     Cd1927   2.054       .  S
Cd1924     O1928   2.057       .  S
Cd1924     O1937   2.073       .  S
Cd1924     O1926   2.000       .  S
O1925      C1935   1.278       .  A
O1926     Cd1927   1.998       .  S
Cd1927     O1929   2.045       .  S
O1928      C1935   1.275       .  A
C1930      C2039   1.460       .  S
C1930      O1934   1.272       .  A
C1933      C1956   1.471       .  S
C1936      O1937   1.274       .  A
O1938      C1954   1.273       .  A
O1938     Zn1944   2.011       .  S
C1939      O1955   1.273       .  A
C1939      O1952   1.280       .  A
O1940      C1953   1.273       .  A
O1940     Cd1947   2.073       .  S
O1941      C1959   1.278       .  A
O1941     Cd1950   2.091       .  S
O1942      C1956   1.271       .  A
O1942     Cd1946   2.054       .  S
O1943      C1954   1.271       .  A
O1943     Cd1946   2.045       .  S
Zn1944     O1957   2.016       .  S
Zn1944     O1949   1.953       .  S
O1945      C1956   1.278       .  A
O1945     Cd1950   2.093       .  S
Cd1946     O1948   2.056       .  S
Cd1946     O1949   1.998       .  S
Cd1947     O1951   2.073       .  S
Cd1947     O1960   2.057       .  S
Cd1947     O1949   2.000       .  S
O1948      C1958   1.272       .  A
O1949     Cd1950   2.001       .  S
O1951      C1958   1.274       .  A
C1953      C2225   1.460       .  S
C1953      O1957   1.272       .  A
C1958      C1965   1.465       .  S
C1959      O1960   1.275       .  A
C1961      N1962   1.359       .  A
C1961      N1966   1.357       .  A
C1961      C2010   1.467       .  S
N1962      C1963   1.360       .  A
C1963      N1964   1.357       .  A
N1964      C1965   1.358       .  A
C1965      N1966   1.356       .  A
O1967      C1983   1.273       .  A
O1967     Zn1973   2.018       .  S
C1968      O1984   1.273       .  A
C1968      O1981   1.279       .  A
O1969      C1982   1.273       .  A
O1969     Cd1976   2.059       .  S
O1970      C1988   1.278       .  A
O1970     Cd1979   2.088       .  S
O1971      C1985   1.274       .  A
O1971     Cd1975   2.056       .  S
O1972      C1983   1.271       .  A
O1972     Cd1975   2.062       .  S
Zn1973     O1984   2.022       .  S
Zn1973     O1986   2.017       .  S
Zn1973     O1978   1.953       .  S
O1974      C1985   1.277       .  A
O1974     Cd1979   2.092       .  S
Cd1975     O1977   2.070       .  S
Cd1975     O1978   1.997       .  S
Cd1976     O1980   2.065       .  S
Cd1976     O1989   2.052       .  S
Cd1976     O1978   1.999       .  S
O1977      C1987   1.274       .  A
O1978     Cd1979   2.002       .  S
Cd1979     O1981   2.083       .  S
O1980      C1987   1.274       .  A
C1982      O1986   1.274       .  A
C1985      C2202   1.471       .  S
C1988      C2008   1.469       .  S
C1988      O1989   1.271       .  A
O1990      C2006   1.274       .  A
O1990     Zn1996   2.017       .  S
C1991      O2007   1.273       .  A
C1991      O2004   1.279       .  A
O1992      C2005   1.271       .  A
O1992     Cd1999   2.062       .  S
O1993      C2011   1.277       .  A
O1993     Cd2002   2.092       .  S
O1994      C2008   1.271       .  A
O1994     Cd1998   2.052       .  S
O1995      C2006   1.273       .  A
O1995     Cd1998   2.058       .  S
Zn1996     O2007   2.022       .  S
Zn1996     O2009   2.019       .  S
Zn1996     O2001   1.953       .  S
O1997      C2008   1.278       .  A
O1997     Cd2002   2.088       .  S
Cd1998     O2000   2.065       .  S
Cd1998     O2001   1.999       .  S
Cd1999     O2003   2.070       .  S
Cd1999     O2012   2.056       .  S
Cd1999     O2001   1.997       .  S
O2000      C2010   1.274       .  A
O2001     Cd2002   2.002       .  S
Cd2002     O2004   2.083       .  S
O2003      C2010   1.274       .  A
C2005      O2009   1.273       .  A
C2011      C2017   1.471       .  S
C2011      O2012   1.274       .  A
C2013      N2014   1.365       .  A
C2013      N2018   1.363       .  A
C2013      C2035   1.475       .  S
N2014      C2015   1.365       .  A
C2015      N2016   1.353       .  A
N2016      C2017   1.354       .  A
C2017      N2018   1.360       .  A
O2019      C2035   1.281       .  A
O2019     Zn2025   2.077       .  S
C2020      C2042   1.475       .  S
C2020      O2036   1.281       .  A
C2020      O2033   1.274       .  A
O2021      C2034   1.270       .  A
O2021     Cd2028   2.036       .  S
O2022      C2040   1.274       .  A
O2022     Cd2031   2.080       .  S
O2023      C2037   1.274       .  A
O2023     Cd2027   2.064       .  S
O2024      C2035   1.274       .  A
O2024     Cd2027   2.067       .  S
Zn2025     O2036   2.077       .  S
Zn2025     O2038   2.056       .  S
Zn2025     O2030   1.965       .  S
O2026      C2037   1.274       .  A
O2026     Cd2031   2.064       .  S
Cd2027     O2029   2.080       .  S
Cd2027     O2030   1.996       .  S
Cd2028     O2032   2.062       .  S
Cd2028     O2041   2.062       .  S
Cd2028     O2030   1.990       .  S
O2029      C2039   1.274       .  A
O2030     Cd2031   1.996       .  S
Cd2031     O2033   2.067       .  S
O2032      C2039   1.271       .  A
C2034      O2038   1.278       .  A
C2040      C2115   1.460       .  S
C2040      O2041   1.271       .  A
C2042      N2043   1.365       .  A
C2042      N2047   1.363       .  A
N2043      C2044   1.365       .  A
C2044      N2045   1.353       .  A
C2044      C2055   1.474       .  S
N2045      C2046   1.354       .  A
C2046      N2047   1.360       .  A
C2046      C2193   1.471       .  S
C2048      N2049   1.358       .  A
C2048      N2053   1.359       .  A
C2048      C2172   1.467       .  S
N2049      C2050   1.356       .  A
C2050      N2051   1.358       .  A
C2050      C2120   1.465       .  S
N2051      C2052   1.357       .  A
C2052      N2053   1.360       .  A
C2052      C2074   1.469       .  S
O2054      C2070   1.274       .  A
C2055      O2071   1.272       .  A
C2055      O2068   1.280       .  A
O2056      C2069   1.274       .  A
O2056     Cd2063   2.073       .  S
O2057      C2075   1.277       .  A
O2058     Cd2062   2.043       .  S
O2059     Cd2062   2.052       .  S
Zn2060     O2073   2.007       .  S
Zn2060     O2065   1.948       .  S
O2061      C2072   1.278       .  A
O2061     Cd2066   2.085       .  S
Cd2062     O2064   2.062       .  S
Cd2062     O2065   2.000       .  S
Cd2063     O2067   2.078       .  S
Cd2063     O2076   2.062       .  S
Cd2063     O2065   1.999       .  S
O2064      C2074   1.273       .  A
Cd2066     O2068   2.091       .  S
O2067      C2074   1.275       .  A
C2069      O2073   1.273       .  A
C2072      C2095   1.465   1_556  S
C2075      O2076   1.275   1_554  A
O2077     Zn2083   2.014       .  S
C2078      O2094   1.274       .  A
C2078      O2091   1.272       .  A
O2079      C2092   1.274       .  A
O2079     Cd2086   2.073       .  S
O2080      C2098   1.273       .  A
O2080     Cd2089   2.062       .  S
O2081      C2095   1.278       .  A
O2081     Cd2085   2.085       .  S
O2082      C2093   1.280       .  A
Zn2083     O2094   2.014       .  S
Zn2083     O2096   2.008       .  S
Zn2083     O2088   1.948       .  S
O2084      C2095   1.269       .  A
O2084     Cd2089   2.043       .  S
Cd2085     O2087   2.092   1_554  S
Cd2085     O2088   2.001       .  S
Cd2086     O2090   2.062       .  S
Cd2086     O2099   2.077       .  S
Cd2086     O2088   1.999       .  S
O2087      C2097   1.277       .  A
O2088     Cd2089   2.000       .  S
Cd2089     O2091   2.052       .  S
O2090      C2097   1.275   1_554  A
C2092      O2096   1.273       .  A
C2093      C2231   1.474       .  S
C2098      C2148   1.469       .  S
C2098      O2099   1.275       .  A
C2101      O2117   1.273       .  A
C2101      O2114   1.280       .  A
O2102      C2115   1.273       .  A
O2102     Cd2109   2.073       .  S
O2103      C2121   1.278       .  A
O2104     Cd2108   2.054       .  S
O2105      C2116   1.271       .  A
O2105     Cd2108   2.045       .  S
Zn2106     O2119   2.016       .  S
Zn2106     O2111   1.953       .  S
O2107      C2118   1.278       .  A
O2107     Cd2112   2.093       .  S
Cd2108     O2110   2.056       .  S
Cd2108     O2111   1.998       .  S
Cd2109     O2113   2.073       .  S
Cd2109     O2122   2.057       .  S
Cd2109     O2111   2.000       .  S
O2110      C2120   1.272       .  A
Cd2112     O2114   2.092       .  S
O2113      C2120   1.274       .  A
C2115      O2119   1.272       .  A
C2118      C2141   1.471   1_556  S
C2121      O2122   1.275   1_554  A
O2123      C2139   1.273       .  A
C2124      O2140   1.273       .  A
C2124      O2137   1.271       .  A
O2125      C2138   1.273       .  A
O2125     Cd2132   2.073       .  S
O2126      C2144   1.272       .  A
O2126     Cd2135   2.056       .  S
O2127      C2141   1.278       .  A
O2127     Cd2131   2.093       .  S
O2128      C2139   1.280       .  A
Zn2129     O2140   2.011       .  S
Zn2129     O2142   2.016       .  S
Zn2129     O2134   1.953       .  S
O2130      C2141   1.271       .  A
O2130     Cd2135   2.054       .  S
Cd2131     O2133   2.091   1_554  S
Cd2131     O2134   2.000       .  S
Cd2132     O2136   2.057       .  S
Cd2132     O2145   2.073       .  S
Cd2132     O2134   2.000       .  S
O2133      C2143   1.278       .  A
O2134     Cd2135   1.998       .  S
Cd2135     O2137   2.045       .  S
O2136      C2143   1.275   1_554  A
C2138      C2224   1.460       .  S
C2138      O2142   1.272       .  A
C2144      C2150   1.465       .  S
C2144      O2145   1.274       .  A
C2146      N2147   1.359       .  A
C2146      N2151   1.357       .  A
C2146      C2195   1.467       .  S
N2147      C2148   1.360       .  A
C2148      N2149   1.357       .  A
N2149      C2150   1.358       .  A
C2150      N2151   1.356       .  A
O2152      C2168   1.274       .  A
O2152     Zn2158   2.017       .  S
C2153      O2169   1.273       .  A
C2153      O2166   1.279       .  A
O2154      C2167   1.271       .  A
O2154     Cd2161   2.062       .  S
O2155      C2173   1.277       .  A
O2155     Cd2164   2.092   1_554  S
O2156      C2170   1.271       .  A
O2156     Cd2160   2.052       .  S
O2157      C2168   1.273       .  A
O2157     Cd2160   2.058       .  S
Zn2158     O2169   2.022       .  S
Zn2158     O2171   2.019       .  S
Zn2158     O2163   1.953       .  S
O2159      C2170   1.278       .  A
O2159     Cd2164   2.088       .  S
Cd2160     O2162   2.065       .  S
Cd2160     O2163   1.999       .  S
Cd2161     O2165   2.070       .  S
Cd2161     O2174   2.056       .  S
Cd2161     O2163   1.997       .  S
O2162      C2172   1.274       .  A
O2163     Cd2164   2.002       .  S
Cd2164     O2166   2.083       .  S
O2165      C2172   1.274       .  A
C2167      O2171   1.273       .  A
C2170      C2196   1.469   1_556  S
C2173      C2229   1.471       .  S
C2173      O2174   1.274   1_554  A
O2175      C2191   1.273       .  A
O2175     Zn2181   2.018       .  S
C2176      O2192   1.273       .  A
C2176      O2189   1.279       .  A
O2177      C2190   1.273       .  A
O2177     Cd2184   2.059       .  S
O2178      C2196   1.278       .  A
O2178     Cd2187   2.088       .  S
O2179      C2193   1.274   1_554  A
O2179     Cd2183   2.056       .  S
O2180      C2191   1.271       .  A
O2180     Cd2183   2.062       .  S
Zn2181     O2192   2.022       .  S
Zn2181     O2194   2.017       .  S
Zn2181     O2186   1.953       .  S
O2182      C2193   1.277       .  A
O2182     Cd2187   2.092   1_556  S
Cd2183     O2185   2.070       .  S
Cd2183     O2186   1.997       .  S
Cd2184     O2188   2.065       .  S
Cd2184     O2197   2.052       .  S
Cd2184     O2186   1.999       .  S
O2185      C2195   1.274       .  A
O2186     Cd2187   2.002       .  S
Cd2187     O2189   2.083       .  S
O2188      C2195   1.274       .  A
C2190      O2194   1.274       .  A
C2196      O2197   1.271       .  A
C2198      N2199   1.365       .  A
C2198      N2203   1.363       .  A
C2198      C2205   1.475       .  S
N2199      C2200   1.365       .  A
C2200      N2201   1.353       .  A
N2201      C2202   1.354       .  A
C2202      N2203   1.360       .  A
O2204      C2220   1.281       .  A
O2204     Zn2210   2.077       .  S
C2205      O2221   1.281       .  A
C2205      O2218   1.274       .  A
O2206      C2219   1.270       .  A
O2206     Cd2213   2.036       .  S
O2207      C2225   1.274       .  A
O2207     Cd2216   2.080       .  S
O2208      C2222   1.274       .  A
O2208     Cd2212   2.064       .  S
O2209      C2220   1.274       .  A
O2209     Cd2212   2.067       .  S
Zn2210     O2221   2.077       .  S
Zn2210     O2223   2.056       .  S
Zn2210     O2215   1.965       .  S
O2211      C2222   1.274       .  A
O2211     Cd2216   2.064       .  S
Cd2212     O2214   2.080       .  S
Cd2212     O2215   1.996       .  S
Cd2213     O2217   2.062       .  S
Cd2213     O2226   2.062       .  S
Cd2213     O2215   1.990       .  S
O2214      C2224   1.274       .  A
O2215     Cd2216   1.996       .  S
Cd2216     O2218   2.067       .  S
O2217      C2224   1.271       .  A
C2219      O2223   1.278       .  A
C2220      C2227   1.475       .  S
C2225      O2226   1.271       .  A
C2227      N2228   1.363       .  A
C2227      N2232   1.365       .  A
N2228      C2229   1.360       .  A
C2229      N2230   1.354       .  A
N2230      C2231   1.353       .  A
C2231      N2232   1.365       .  A
