geometry optimzed in LAMMPS
_audit_creation_date              2020-12-01 
_audit_creation_method            'lammps2cif' 
_symmetry_space_group_name_H-M    'P1' 
_symmetry_Int_Tables_number       1 
_symmetry_cell_setting            triclinic 
loop_ 
_symmetry_equiv_pos_as_xyz 
  x,y,z 
_cell_length_a                    68.17720606 
_cell_length_b                    68.00752354069837 
_cell_length_c                    68.00469561372684 
_cell_angle_alpha                 89.9635421254494 
_cell_angle_beta                  89.99923468234348 
_cell_angle_gamma                 90.04267151329772 
loop_ 
_atom_site_label 
_atom_site_type_symbol 
_atom_site_fract_x 
_atom_site_fract_y 
_atom_site_fract_z 
_atom_site_charge 
O1          O  0.03155469  0.69205496  0.81738818    -0.55300
C2          C  0.05607117  0.65935715  0.86181314     0.77300
O3          O  0.99553768  0.64204198  0.84203994    -0.56500
C4          C  0.01685626  0.69163947  0.80604440     0.77300
C5          C  0.04159991  0.62885092  0.80352485     0.79600
Cd6        Cd  0.02658290  0.65832885  0.83104169     1.37500
O7          O  0.05400775  0.67352933  0.84993461    -0.55300
O8          O  0.05001228  0.64517848  0.80621524    -0.54200
C9          C  0.99122534  0.65491921  0.85477079     0.79600
O10         O  0.02618607  0.62579886  0.81343819    -0.56500
O11         O  0.04489883  0.64472084  0.85940463    -0.55000
O12         O  0.00666723  0.67611585  0.80622685    -0.55000
O13         O  0.00297610  0.66918784  0.85650894    -0.54100
O14         O  0.19285218  0.52796897  0.68851380    -0.55300
C15         C  0.15869673  0.55285529  0.64556035     0.77300
O16         O  0.14135415  0.49338506  0.66449006    -0.56500
C17         C  0.19095895  0.51729138  0.70362586     0.77300
C18         C  0.12842458  0.53897488  0.70264515     0.79600
Cd19       Cd  0.15853889  0.52358308  0.67662578     1.37500
O20         O  0.17359085  0.55024921  0.65635446    -0.55300
O21         O  0.14292829  0.54916547  0.69713403    -0.54200
C22         C  0.15561428  0.48711859  0.65438803     0.79600
O23         O  0.12759968  0.52148410  0.69632097    -0.56500
O24         O  0.14392405  0.54219438  0.64906913    -0.55000
O25         O  0.17433230  0.50953777  0.70633747    -0.55000
O26         O  0.17107858  0.49733128  0.65469487    -0.54100
O27         O  0.97175596  0.81708508  0.69405584    -0.55300
C28         C  0.95060881  0.86087482  0.65855223     0.77300
O29         O  0.01028774  0.83917308  0.64316109    -0.56500
C30         C  0.98464066  0.80371682  0.69408299     0.77300
C31         C  0.96431192  0.80217791  0.63130044     0.79600
Cd32       Cd  0.97934171  0.82947797  0.66029998     1.37500
O33         O  0.95465544  0.85233073  0.67456740    -0.55300
O34         O  0.95485255  0.80657045  0.64665015    -0.54200
C35         C  0.01596935  0.85097091  0.65635267     0.79600
O36         O  0.98093897  0.81018016  0.62914788    -0.56500
O37         O  0.95969481  0.85508766  0.64344331    -0.55000
O38         O  0.99518146  0.80234788  0.67886088    -0.55000
O39         O  0.00506251  0.85271364  0.67125955    -0.54100
O40         O  0.81578768  0.68800509  0.53422482    -0.55300
C41         C  0.84786341  0.64142620  0.55469564     0.77300
O42         O  0.86433650  0.66378393  0.49486220    -0.56500
C43         C  0.81556513  0.69980779  0.51985717     0.77300
C44         C  0.87831028  0.69966031  0.54242335     0.79600
Cd45       Cd  0.84848343  0.67346831  0.52657354     1.37500
O46         O  0.83307876  0.65236230  0.55213960    -0.55300
O47         O  0.86285430  0.69537940  0.55170277    -0.54200
C48         C  0.85137677  0.65126794  0.49023742     0.79600
O49         O  0.88039822  0.69186423  0.52566146    -0.56500
O50         O  0.86288839  0.64521533  0.54447667    -0.55000
O51         O  0.83024986  0.69942764  0.50853326    -0.55000
O52         O  0.83721818  0.64919604  0.50204321    -0.54100
O53         O  0.35032036  0.45100698  0.83269306    -0.55300
C54         C  0.30439577  0.48533952  0.81379667     0.77300
O55         O  0.31002159  0.48020590  0.87734726    -0.56500
C56         C  0.36124085  0.44897322  0.84759714     0.77300
C57         C  0.35168798  0.51480173  0.84942015     0.79600
Cd58       Cd  0.33020117  0.47810999  0.84677669     1.37500
O59         O  0.31853164  0.47336984  0.81238594    -0.55300
O60         O  0.35115280  0.50477002  0.83381026    -0.54200
C61         C  0.30273550  0.46315697  0.87574570     0.79600
O62         O  0.34237982  0.50806445  0.86404588    -0.56500
O63         O  0.30217152  0.49380568  0.83017058    -0.55000
O64         O  0.35798571  0.46026554  0.86197732    -0.55000
O65         O  0.30801270  0.45316232  0.86101640    -0.54100
O66         O  0.19029616  0.31127191  0.97646743    -0.55300
C67         C  0.14494760  0.34423695  0.95244767     0.77300
O68         O  0.16594367  0.36104483  0.01238267    -0.56500
C69         C  0.20366513  0.31300456  0.98925979     0.77300
C70         C  0.20214762  0.37537231  0.96499298     0.79600
Cd71       Cd  0.17660855  0.34504107  0.98108471     1.37500
O72         O  0.15663505  0.32989415  0.95428036    -0.55300
O73         O  0.19819570  0.35975890  0.95574672    -0.54200
C74         C  0.15472433  0.34718123  0.01769033     0.79600
O75         O  0.19436796  0.37730771  0.98178242    -0.56500
O76         O  0.14781133  0.35881619  0.96360628    -0.55000
O77         O  0.20471177  0.32932328  0.99805358    -0.55000
O78         O  0.15360613  0.33254074  0.00632486    -0.54100
O79         O  0.47419263  0.31355848  0.19269782    -0.55300
C80         C  0.45108792  0.35803612  0.16025199     0.77300
O81         O  0.51047106  0.34044209  0.14276843    -0.56500
C82         C  0.48590563  0.29922381  0.19126973     0.77300
C83         C  0.46508402  0.30109383  0.12812368     0.79600
Cd84       Cd  0.48019718  0.32679051  0.15903741     1.37500
O85         O  0.45274253  0.34578809  0.17416460    -0.55300
O86         O  0.45461994  0.30699029  0.14225638    -0.54200
C87         C  0.51676118  0.34941677  0.15781173     0.79600
O88         O  0.48268469  0.30704959  0.12784737    -0.56500
O89         O  0.46267139  0.35595193  0.14588947    -0.55000
O90         O  0.49498050  0.29749873  0.17515678    -0.55000
O91         O  0.50657545  0.34778234  0.17323920    -0.54100
O92         O  0.33202939  0.15291133  0.05385745    -0.55300
C93         C  0.31454597  0.19980023  0.02115619     0.77300
O94         O  0.37830383  0.19172145  0.02340881    -0.56500
C95         C  0.34586286  0.14060118  0.05514694     0.77300
C96         C  0.34838139  0.15052400  0.99007999     0.79600
Cd97       Cd  0.34696477  0.17254366  0.02668712     1.37500
O98         O  0.31388642  0.18640613  0.03405238    -0.55300
O99         O  0.33269507  0.15256951  0.99975026    -0.54200
C100        C  0.37796762  0.19858079  0.04069600     0.79600
O101        O  0.36351752  0.15880514  0.99696106    -0.56500
O102        O  0.32990748  0.20062880  0.01077956    -0.55000
O103        O  0.36016001  0.14298747  0.04356845    -0.55000
O104        O  0.36369543  0.19344313  0.05136287    -0.54100
O105        O  0.69000604  0.81047980  0.47646127    -0.55300
C106        C  0.64440508  0.84265116  0.45362390     0.77300
O107        O  0.66155128  0.86211384  0.51025026    -0.56500
C108        C  0.70310619  0.81180720  0.48958781     0.77300
C109        C  0.70226714  0.87354958  0.46543836     0.79600
Cd110      Cd  0.67618071  0.84393762  0.48188880     1.37500
O111        O  0.65513649  0.82776054  0.45658933    -0.55300
O112        O  0.69669507  0.85870834  0.45577680    -0.54200
C113        C  0.65388587  0.84712519  0.51818660     0.79600
O114        O  0.69609494  0.87490791  0.48294808    -0.56500
O115        O  0.64825999  0.85786588  0.46352879    -0.55000
O116        O  0.70393174  0.82780951  0.49900907    -0.55000
O117        O  0.65665905  0.83085893  0.50968780    -0.54100
O118        O  0.81937375  0.97365514  0.31458105    -0.55300
C119        C  0.86253794  0.94991467  0.34815271     0.77300
O120        O  0.84339294  0.00791948  0.36712538    -0.56500
C121        C  0.80537202  0.98578752  0.31569669     0.77300
C122        C  0.80401707  0.96221882  0.37770735     0.79600
Cd123      Cd  0.83106923  0.97846295  0.34889113     1.37500
O124        O  0.85097728  0.95187496  0.33373697    -0.55300
O125        O  0.81043958  0.95228334  0.36341334    -0.54200
C126        C  0.85308948  0.01485641  0.35284123     0.79600
O127        O  0.81009305  0.97975493  0.37908340    -0.56500
O128        O  0.85962904  0.96092712  0.36282571    -0.55000
O129        O  0.80319233  0.99456224  0.33192426    -0.55000
O130        O  0.85249628  0.00529157  0.33694127    -0.54100
O131        O  0.69381097  0.02937445  0.19116207    -0.55300
C132        C  0.66000739  0.05129473  0.14499192     0.77300
O133        O  0.64426092  0.99170035  0.16837495    -0.56500
C134        C  0.69339077  0.01522940  0.20326486     0.77300
C135        C  0.63169425  0.03954602  0.20484614     0.79600
Cd136      Cd  0.66033902  0.02341623  0.17757613     1.37500
O137        O  0.67484286  0.04943980  0.15602516    -0.55300
O138        O  0.64823119  0.04742050  0.20199426    -0.54200
C139        C  0.65759846  0.98653002  0.15648946     0.79600
O140        O  0.62802990  0.02407963  0.19516539    -0.56500
O141        O  0.64534993  0.04064172  0.14901348    -0.55000
O142        O  0.67796328  0.00492311  0.20354231    -0.55000
O143        O  0.67195049  0.99811599  0.15448256    -0.54100
O144        O  0.52828372  0.19049068  0.31926399    -0.55300
C145        C  0.55416110  0.15710131  0.36280034     0.77300
O146        O  0.49379759  0.14005413  0.34292774    -0.56500
C147        C  0.51700326  0.18810043  0.30468692     0.77300
C148        C  0.54256914  0.12688801  0.30677461     0.79600
Cd149      Cd  0.52492643  0.15635582  0.33203625     1.37500
O150        O  0.55141744  0.17181635  0.35173619    -0.55300
O151        O  0.55087231  0.14303012  0.31066198    -0.54200
C152        C  0.48846808  0.15385044  0.35422387     0.79600
O153        O  0.52582880  0.12404841  0.31437162    -0.56500
O154        O  0.54342907  0.14222916  0.35986255    -0.55000
O155        O  0.50947903  0.17123749  0.30262317    -0.55000
O156        O  0.49971411  0.16857765  0.35525810    -0.54100
O157        O  0.55214283  0.34733470  0.83523157    -0.55300
C158        C  0.51602762  0.30203871  0.81650279     0.77300
O159        O  0.52445711  0.31016788  0.88195789    -0.56500
C160        C  0.55312694  0.35953914  0.84923863     0.77300
C161        C  0.48843269  0.34991206  0.85184599     0.79600
Cd162      Cd  0.52463994  0.32779806  0.84948610     1.37500
O163        O  0.52997808  0.31430420  0.81582325    -0.55300
O164        O  0.50003281  0.35148733  0.83743805    -0.54200
C165        C  0.54046427  0.30119041  0.87910544     0.79600
O166        O  0.49335700  0.33812856  0.86540495    -0.56500
O167        O  0.50604918  0.30165572  0.83215799    -0.55000
O168        O  0.54123310  0.35710947  0.86328187    -0.55000
O169        O  0.54895675  0.30437288  0.86291668    -0.54100
O170        O  0.69382640  0.18705767  0.97369764    -0.55300
C171        C  0.66082542  0.14201359  0.95003521     0.77300
O172        O  0.64467989  0.16049899  0.01061726    -0.56500
C173        C  0.69313434  0.19936864  0.98761803     0.77300
C174        C  0.63035601  0.19928579  0.96506621     0.79600
Cd175      Cd  0.66056220  0.17270134  0.97972490     1.37500
O176        O  0.67529452  0.15347053  0.95223303    -0.55300
O177        O  0.64561519  0.19524679  0.95536153    -0.54200
C178        C  0.65844547  0.14890849  0.01528389     0.79600
O179        O  0.62868941  0.19113721  0.98172604    -0.56500
O180        O  0.64631748  0.14469077  0.96128573    -0.55000
O181        O  0.67773159  0.19931913  0.99795275    -0.55000
O182        O  0.67301851  0.14835450  0.00381998    -0.54100
O183        O  0.69132540  0.47225358  0.19117261    -0.55300
C184        C  0.64456002  0.44946234  0.15957761     0.77300
O185        O  0.66435936  0.50836930  0.14021457    -0.56500
C186        C  0.70306648  0.48665914  0.19066006     0.77300
C187        C  0.70316046  0.46314549  0.12885410     0.79600
Cd188      Cd  0.67614941  0.47850953  0.15823879     1.37500
O189        O  0.65404996  0.45418505  0.17485517    -0.55300
O190        O  0.69914445  0.45396191  0.14449773    -0.54200
C191        C  0.65334143  0.51436078  0.15393483     0.79600
O192        O  0.69475810  0.47956006  0.12642490    -0.56500
O193        O  0.64965653  0.45779523  0.14376438    -0.55000
O194        O  0.70233608  0.49741439  0.17551658    -0.55000
O195        O  0.65300772  0.50413792  0.16944042    -0.54100
O196        O  0.81939095  0.31029701  0.03075687    -0.55300
C197        C  0.86344811  0.34393568  0.05615853     0.77300
O198        O  0.84154225  0.36049327  0.99532192    -0.56500
C199        C  0.80445035  0.31268735  0.01998138     0.77300
C200        C  0.80706094  0.37519588  0.04351064     0.79600
Cd201      Cd  0.83205750  0.34469505  0.02723573     1.37500
O202        O  0.85250579  0.32915128  0.05341859    -0.55300
O203        O  0.80950738  0.35880419  0.05193115    -0.54200
C204        C  0.85356036  0.34721599  0.99038038     0.79600
O205        O  0.81615494  0.37783082  0.02748490    -0.56500
O206        O  0.85988345  0.35899316  0.04587646    -0.55000
O207        O  0.80215902  0.32960278  0.01263929    -0.55000
O208        O  0.85548474  0.33295617  0.00210503    -0.54100
O209        O  0.47468993  0.19054182  0.68991584    -0.55300
C210        C  0.45211034  0.15539940  0.64486091     0.77300
O211        O  0.51130452  0.14021776  0.66520452    -0.56500
C212        C  0.48796553  0.18991770  0.70291244     0.77300
C213        C  0.46600964  0.12646261  0.70327216     0.79600
Cd214      Cd  0.48069122  0.15665445  0.67667566     1.37500
O215        O  0.45365886  0.17032416  0.65587247    -0.55300
O216        O  0.45631686  0.14176676  0.69922836    -0.54200
C217        C  0.51656267  0.15408205  0.65395320     0.79600
O218        O  0.48270987  0.12490002  0.69529900    -0.56500
O219        O  0.46342413  0.14116782  0.64853000    -0.55000
O220        O  0.49791290  0.17426520  0.70378482    -0.55000
O221        O  0.50563349  0.16906401  0.65342579    -0.54100
O222        O  0.33097714  0.04773794  0.85193699    -0.55300
C223        C  0.31541697  0.01468856  0.80395640     0.77300
O224        O  0.37906355  0.02150943  0.81172186    -0.56500
C225        C  0.34612171  0.05237281  0.86163843     0.77300
C226        C  0.35184447  0.98721308  0.85409373     0.79600
Cd227      Cd  0.34768070  0.02290632  0.83083569     1.37500
O228        O  0.31470043  0.02888175  0.81594392    -0.55300
O229        O  0.33623056  0.99719551  0.85400543    -0.54200
C230        C  0.37731206  0.03843007  0.80416534     0.79600
O231        O  0.36576910  0.99351072  0.84351917    -0.56500
O232        O  0.33074738  0.00426537  0.80436273    -0.55000
O233        O  0.36183229  0.04358652  0.85721398    -0.55000
O234        O  0.36212882  0.04802128  0.80875160    -0.54100
O235        O  0.31479251  0.81319662  0.53210782    -0.55300
C236        C  0.36220534  0.84489993  0.55294162     0.77300
O237        O  0.34061350  0.86376393  0.49518967    -0.56500
C238        C  0.30330150  0.81337113  0.51750281     0.77300
C239        C  0.30250061  0.87511981  0.54085081     0.79600
Cd240      Cd  0.32965228  0.84601929  0.52535688     1.37500
O241        O  0.35165241  0.82989917  0.54988176    -0.55300
O242        O  0.30687698  0.85968376  0.55020895    -0.54200
C243        C  0.35170698  0.85009833  0.48921352     0.79600
O244        O  0.31077579  0.87753438  0.52437264    -0.56500
O245        O  0.35759888  0.86037467  0.54375344    -0.55000
O246        O  0.30405636  0.82829578  0.50645546    -0.55000
O247        O  0.35232459  0.83466848  0.49954309    -0.54100
O248        O  0.18905255  0.97146323  0.69305147    -0.55300
C249        C  0.14326281  0.94985006  0.65981548     0.77300
O250        O  0.16243722  0.00848620  0.64394870    -0.56500
C251        C  0.20326727  0.98333671  0.69145200     0.77300
C252        C  0.19974768  0.96175010  0.62841379     0.79600
Cd253      Cd  0.17529930  0.97777303  0.65961234     1.37500
O254        O  0.15557273  0.95038482  0.67373844    -0.55300
O255        O  0.19461751  0.95177092  0.64321162    -0.54200
C256        C  0.15326368  0.01444311  0.65900076     0.79600
O257        O  0.19372703  0.97935206  0.62770764    -0.56500
O258        O  0.14559997  0.96210134  0.64604634    -0.55000
O259        O  0.20466344  0.99256394  0.67536530    -0.55000
O260        O  0.15461328  0.00393790  0.67426994    -0.54100
O261        O  0.19245216  0.68710148  0.47687405    -0.55300
C262        C  0.16071108  0.64277749  0.45199035     0.77300
O263        O  0.13961967  0.66021021  0.50973537    -0.56500
C264        C  0.19090027  0.70052127  0.48964576     0.77300
C265        C  0.13000528  0.70076202  0.46514523     0.79600
Cd266      Cd  0.15874733  0.67374410  0.48136494     1.37500
O267        O  0.17542513  0.65348578  0.45574140    -0.55300
O268        O  0.14469087  0.69496083  0.45544130    -0.54200
C269        C  0.15391376  0.65107383  0.51730303     0.79600
O270        O  0.12828261  0.69417029  0.48246613    -0.56500
O271        O  0.14527681  0.64620219  0.46168470    -0.55000
O272        O  0.17477617  0.70153085  0.49875440    -0.55000
O273        O  0.17019126  0.65247018  0.50854806    -0.54100
O274        O  0.05288484  0.84803883  0.33192434    -0.55300
C275        C  0.01772201  0.80169832  0.31587090     0.77300
O276        O  0.02595335  0.81106364  0.37976873    -0.56500
C277        C  0.05575480  0.85913332  0.34658181     0.77300
C278        C  0.99073294  0.85209364  0.35077090     0.79600
Cd279      Cd  0.02617260  0.82879454  0.34764120     1.37500
O280        O  0.02921126  0.81611675  0.31352477    -0.55300
O281        O  0.00185613  0.85294823  0.33595638    -0.54200
C282        C  0.04253443  0.80305087  0.37730557     0.79600
O283        O  0.99566711  0.84035277  0.36434273    -0.56500
O284        O  0.00999910  0.79979710  0.33265687    -0.55000
O285        O  0.04523080  0.85617642  0.36158759    -0.55000
O286        O  0.05139957  0.80687060  0.36144164    -0.54100
O287        O  0.83244837  0.54891415  0.35227782    -0.55300
C288        C  0.81557699  0.51707752  0.30327006     0.77300
O289        O  0.87834292  0.52379637  0.30992290    -0.56500
C290        C  0.84731391  0.55118403  0.36320333     0.77300
C291        C  0.85178492  0.48666630  0.35131569     0.79600
Cd292      Cd  0.84787239  0.52379946  0.33047282     1.37500
O293        O  0.81402780  0.52915630  0.31733711    -0.55300
O294        O  0.83591500  0.49623407  0.35098930    -0.54200
C295        C  0.87675177  0.54153611  0.30449480     0.79600
O296        O  0.86604895  0.49391681  0.34184499    -0.56500
O297        O  0.83174762  0.50813925  0.30175730    -0.55000
O298        O  0.86220168  0.54087448  0.35922008    -0.55000
O299        O  0.86220080  0.55095982  0.31104818    -0.54100
O300        O  0.97731908  0.69290555  0.18753583    -0.55300
C301        C  0.95193509  0.65870768  0.14368352     0.77300
O302        O  0.01090499  0.64123154  0.16281997    -0.56500
C303        C  0.98953946  0.69097091  0.20141852     0.77300
C304        C  0.96415953  0.63065187  0.20215777     0.79600
Cd305      Cd  0.98099561  0.65880532  0.17483423     1.37500
O306        O  0.95542500  0.67409452  0.15355002    -0.55300
O307        O  0.95611203  0.64696273  0.19841944    -0.54200
C308        C  0.01692417  0.65526877  0.15216173     0.79600
O309        O  0.98019458  0.62707949  0.19344644    -0.56500
O310        O  0.96156599  0.64350664  0.14821289    -0.55000
O311        O  0.99795676  0.67447990  0.20292271    -0.55000
O312        O  0.00675092  0.67077387  0.15222930    -0.54100
O313        O  0.67520108  0.95183683  0.84987024    -0.55300
C314        C  0.69109048  0.98519804  0.80264995     0.77300
O315        O  0.62656958  0.97773389  0.81271325    -0.56500
C316        C  0.66063106  0.94893129  0.86100915     0.77300
C317        C  0.65642081  0.01432350  0.85117646     0.79600
Cd318      Cd  0.65908078  0.97761624  0.82958850     1.37500
O319        O  0.69255018  0.97244261  0.81610613    -0.55300
O320        O  0.67136071  0.00339537  0.85199591    -0.54200
C321        C  0.62906801  0.96146844  0.80404508     0.79600
O322        O  0.64246373  0.00854517  0.84035385    -0.56500
O323        O  0.67500940  0.99435481  0.80149749    -0.55000
O324        O  0.64543658  0.95901149  0.85765384    -0.55000
O325        O  0.64517717  0.95280568  0.80703546    -0.54100
O326        O  0.55116096  0.82993496  0.65584452    -0.55300
C327        C  0.51692960  0.81278200  0.70325349     0.77300
O328        O  0.52372047  0.87713756  0.69406949    -0.56500
C329        C  0.55448110  0.84515062  0.64564516     0.77300
C330        C  0.48890853  0.84773136  0.65328156     0.79600
Cd331      Cd  0.52472340  0.84504227  0.67627164     1.37500
O332        O  0.52937786  0.81117167  0.68955117    -0.55300
O333        O  0.49990494  0.83281110  0.65282164    -0.54200
C334        C  0.54001174  0.87472417  0.70267641     0.79600
O335        O  0.49405588  0.86157980  0.66459096    -0.56500
O336        O  0.50809876  0.82905855  0.70457374    -0.55000
O337        O  0.54428324  0.86016259  0.64950786    -0.55000
O338        O  0.54903569  0.85888617  0.69919761    -0.54100
O339        O  0.81704753  0.02885669  0.69173195    -0.55300
C340        C  0.86127283  0.05095597  0.65668530     0.77300
O341        O  0.83990074  0.99306562  0.63999297    -0.56500
C342        C  0.80301873  0.01670432  0.69074923     0.77300
C343        C  0.80158190  0.03818591  0.62845518     0.79600
Cd344      Cd  0.82880890  0.02318811  0.65748385     1.37500
O345        O  0.84967962  0.05000420  0.67118361    -0.55300
O346        O  0.80710242  0.04835990  0.64297442    -0.54200
C347        C  0.84962598  0.98633938  0.65434009     0.79600
O348        O  0.80867975  0.02107138  0.62700617    -0.56500
O349        O  0.85793146  0.03934938  0.64257347    -0.55000
O350        O  0.80093906  0.00759648  0.67470293    -0.55000
O351        O  0.84941788  0.99625019  0.67004076    -0.54100
O352        O  0.65606173  0.17154857  0.55372290    -0.55300
C353        C  0.70358423  0.18855975  0.52139688     0.77300
O354        O  0.69249979  0.12438639  0.52410059    -0.56500
C355        C  0.64415434  0.15736453  0.55525586     0.77300
C356        C  0.65420290  0.15639468  0.48941265     0.79600
Cd357      Cd  0.67549239  0.15684965  0.52645447     1.37500
O358        O  0.68887183  0.19037685  0.53257906    -0.55300
O359        O  0.65511637  0.17156824  0.50006860    -0.54200
C360        C  0.69999126  0.12526815  0.54110710     0.79600
O361        O  0.66328657  0.14136843  0.49550334    -0.56500
O362        O  0.70545815  0.17226893  0.51265932    -0.55000
O363        O  0.64659349  0.14308422  0.54364957    -0.55000
O364        O  0.69627153  0.14044115  0.55112891    -0.54100
O365        O  0.47508340  0.68523620  0.81315578    -0.55300
C366        C  0.45116782  0.64137125  0.84646817     0.77300
O367        O  0.51189426  0.66249499  0.86263335    -0.56500
C368        C  0.48717140  0.69926172  0.81470148     0.77300
C369        C  0.46350916  0.69738572  0.87674824     0.79600
Cd370      Cd  0.48025799  0.67220779  0.84689726     1.37500
O371        O  0.45406187  0.65214600  0.83157781    -0.55300
O372        O  0.45519120  0.69432537  0.86044769    -0.54200
C373        C  0.51665428  0.65037664  0.84934775     0.79600
O374        O  0.47984119  0.68898504  0.87954458    -0.56500
O375        O  0.46175425  0.64456769  0.86138200    -0.55000
O376        O  0.49615561  0.70079770  0.83088559    -0.55000
O377        O  0.50488379  0.64844048  0.83514420    -0.54100
O378        O  0.31421902  0.81206316  0.97360090    -0.55300
C379        C  0.34698732  0.85812245  0.95112063     0.77300
O380        O  0.36496647  0.83783328  0.00992607    -0.56500
C381        C  0.31489912  0.80004407  0.98779348     0.77300
C382        C  0.37540748  0.79968514  0.96364557     0.79600
Cd383      Cd  0.34706237  0.82675540  0.97991128     1.37500
O384        O  0.33132887  0.84914900  0.95557033    -0.55300
O385        O  0.35979171  0.80416107  0.95472333    -0.54200
C386        C  0.35135156  0.84886105  0.01610905     0.79600
O387        O  0.37822020  0.80763972  0.98023227    -0.56500
O388        O  0.36243524  0.85275263  0.95985009    -0.55000
O389        O  0.33011886  0.80044008  0.99838185    -0.55000
O390        O  0.33595198  0.84965041  0.00580239    -0.54100
O391        O  0.32041495  0.53013185  0.19518838    -0.55300
C392        C  0.36260315  0.55361017  0.15967861     0.77300
O393        O  0.34121585  0.49183118  0.14604909    -0.56500
C394        C  0.30655010  0.51777558  0.19454193     0.77300
C395        C  0.30486879  0.53963771  0.13148057     0.79600
Cd396      Cd  0.33188957  0.52427557  0.16091778     1.37500
O397        O  0.35189052  0.55153790  0.17472323    -0.55300
O398        O  0.30692337  0.54751921  0.14816646    -0.54200
C399        C  0.35395270  0.48755707  0.15890738     0.79600
O400        O  0.31511594  0.52448908  0.12811959    -0.56500
O401        O  0.35911080  0.54243195  0.14527040    -0.55000
O402        O  0.30445449  0.50836166  0.17865524    -0.55000
O403        O  0.35639733  0.49989912  0.17255954    -0.54100
O404        O  0.18994026  0.68841819  0.03194843    -0.55300
C405        C  0.14456368  0.65470579  0.05308203     0.77300
O406        O  0.16488348  0.63905891  0.99470423    -0.56500
C407        C  0.20434413  0.68696364  0.02030531     0.77300
C408        C  0.20256249  0.62453894  0.04131868     0.79600
Cd409      Cd  0.17701266  0.65481041  0.02557276     1.37500
O410        O  0.15659504  0.66886551  0.05239329    -0.55300
O411        O  0.19700254  0.63911167  0.05137145    -0.54200
C412        C  0.15622402  0.65425985  0.98836591     0.79600
O413        O  0.19627973  0.62353658  0.02382225    -0.56500
O414        O  0.14740611  0.64069245  0.04122786    -0.55000
O415        O  0.20622444  0.67084884  0.01126030    -0.55000
O416        O  0.15742807  0.66954546  0.99882922    -0.54100
O417        O  0.83155536  0.34881454  0.45354985    -0.55300
C418        C  0.81454195  0.30193963  0.48931354     0.77300
O419        O  0.87828640  0.31040442  0.48122811    -0.56500
C420        C  0.84633804  0.35982487  0.45108783     0.77300
C421        C  0.85114878  0.35122949  0.51616570     0.79600
Cd422      Cd  0.84666820  0.32876629  0.48038071     1.37500
O423        O  0.81301068  0.31477451  0.47591960    -0.55300
O424        O  0.83562118  0.35187169  0.50603329    -0.54200
C425        C  0.87626378  0.30284121  0.46435921     0.79600
O426        O  0.86473493  0.34018614  0.50998587    -0.56500
O427        O  0.83057831  0.30152776  0.49861137    -0.55000
O428        O  0.86091811  0.35673127  0.46211015    -0.55000
O429        O  0.86073248  0.30697599  0.45512902    -0.54100
O430        O  0.95450154  0.15312227  0.33352097    -0.55300
C431        C  0.98931440  0.19932957  0.31473570     0.77300
O432        O  0.98068609  0.19265781  0.38003785    -0.56500
C433        C  0.95112246  0.14331352  0.34897424     0.77300
C434        C  0.01661175  0.15108385  0.35301831     0.79600
Cd435      Cd  0.98082067  0.17405764  0.34827471     1.37500
O436        O  0.97560499  0.18678959  0.31418420    -0.55300
O437        O  0.00561978  0.14941526  0.33815345    -0.54200
C438        C  0.96513851  0.20214707  0.37640523     0.79600
O439        O  0.01142999  0.16351450  0.36585769    -0.56500
O440        O  0.99929806  0.20000645  0.33038258    -0.55000
O441        O  0.96114965  0.14768496  0.36396697    -0.55000
O442        O  0.95704849  0.19889168  0.36002524    -0.54100
O443        O  0.17548057  0.45004331  0.35059698    -0.55300
C444        C  0.19383403  0.48568508  0.30554416     0.77300
O445        O  0.12913382  0.47943430  0.31350017    -0.56500
C446        C  0.16100045  0.44787223  0.36202498     0.77300
C447        C  0.15823144  0.51433313  0.35385419     0.79600
Cd448      Cd  0.16097805  0.47784362  0.33161645     1.37500
O449        O  0.19538956  0.47382477  0.31979219    -0.55300
O450        O  0.17330125  0.50355573  0.35433611    -0.54200
C451        C  0.13091681  0.46287675  0.30521495     0.79600
O452        O  0.14419145  0.50845756  0.34319957    -0.56500
O453        O  0.17731128  0.49375497  0.30318991    -0.55000
O454        O  0.14668396  0.45939329  0.35955992    -0.55000
O455        O  0.14643435  0.45339603  0.30884379    -0.54100
O456        O  0.03357770  0.31307163  0.19195344    -0.55300
C457        C  0.05629544  0.34531239  0.14597565     0.77300
O458        O  0.99601779  0.36173967  0.16646280    -0.56500
C459        C  0.01966050  0.31377145  0.20424061     0.77300
C460        C  0.04211029  0.37627737  0.20389147     0.79600
Cd461      Cd  0.02735373  0.34609430  0.17740086     1.37500
O462        O  0.05329991  0.33045511  0.15677049    -0.55300
O463        O  0.05072406  0.36000256  0.20157096    -0.54200
C464        C  0.99103037  0.34778384  0.15520796     0.79600
O465        O  0.02661272  0.37894884  0.19400037    -0.56500
O466        O  0.04623725  0.36046228  0.14967915    -0.55000
O467        O  0.00934286  0.32920262  0.20423352    -0.55000
O468        O  0.00255546  0.33329167  0.15425236    -0.54100
O469        O  0.81563948  0.69045546  0.97276109    -0.55300
C470        C  0.86223110  0.65604306  0.95253579     0.77300
O471        O  0.84222791  0.64125445  0.01072808    -0.56500
C472        C  0.80299277  0.69003246  0.98639576     0.77300
C473        C  0.80291269  0.62753538  0.96469545     0.79600
Cd474      Cd  0.82967515  0.65726712  0.98010522     1.37500
O475        O  0.85153014  0.67117120  0.95413111    -0.55300
O476        O  0.80857887  0.64206331  0.95459285    -0.54200
C477        C  0.85193515  0.65603886  0.01654040     0.79600
O478        O  0.80947903  0.62642189  0.98208619    -0.56500
O479        O  0.85790662  0.64156588  0.96335906    -0.55000
O480        O  0.80266205  0.67477919  0.99701526    -0.55000
O481        O  0.85107449  0.67128372  0.00595357    -0.54100
O482        O  0.65636363  0.55035341  0.83196837    -0.55300
C483        C  0.70347014  0.51639391  0.81541619     0.77300
O484        O  0.69431783  0.52124466  0.87885772    -0.56500
C485        C  0.64434165  0.55194705  0.84606063     0.77300
C486        C  0.65272100  0.48712791  0.84944498     0.79600
Cd487      Cd  0.67563383  0.52317329  0.84717410     1.37500
O488        O  0.68918084  0.52807128  0.81337506    -0.55300
O489        O  0.65329163  0.49752232  0.83405641    -0.54200
C490        C  0.70070385  0.53871641  0.87813376     0.79600
O491        O  0.66302292  0.49292011  0.86379645    -0.56500
O492        O  0.70495154  0.50784552  0.83184919    -0.55000
O493        O  0.64677358  0.54053788  0.86052134    -0.55000
O494        O  0.69547470  0.54889802  0.86350327    -0.54100
O495        O  0.67604655  0.84862121  0.05306324    -0.55300
C496        C  0.69010799  0.80147981  0.01789489     0.77300
O497        O  0.62712224  0.81173885  0.02559724    -0.56500
C498        C  0.66187329  0.86022295  0.05612267     0.77300
C499        C  0.65734501  0.85272927  0.99087606     0.79600
Cd500      Cd  0.65931023  0.82952034  0.02661739     1.37500
O501        O  0.69222177  0.81448831  0.03102206    -0.55300
O502        O  0.67300309  0.85079226  0.00059821    -0.54200
C503        C  0.62938950  0.80325543  0.04202149     0.79600
O504        O  0.64234317  0.84387175  0.99737563    -0.56500
O505        O  0.67398038  0.80139087  0.00872155    -0.55000
O506        O  0.64668014  0.85769440  0.04579141    -0.55000
O507        O  0.64500637  0.80704661  0.05126203    -0.54100
O508        O  0.53509064  0.68910229  0.19133255    -0.55300
C509        C  0.55564670  0.64285909  0.15838008     0.77300
O510        O  0.49458089  0.66497346  0.14385112    -0.56500
C511        C  0.52020274  0.70016440  0.19218923     0.77300
C512        C  0.54120645  0.70082841  0.12892450     0.79600
Cd513      Cd  0.52670796  0.67413120  0.15891802     1.37500
O514        O  0.55102623  0.65143998  0.17421389    -0.55300
O515        O  0.54894622  0.69951880  0.14574514    -0.54200
C516        C  0.49054476  0.65178933  0.15636026     0.79600
O517        O  0.52640305  0.69005538  0.12569577    -0.56500
O518        O  0.54728213  0.64878380  0.14290440    -0.55000
O519        O  0.50835665  0.69925779  0.17791871    -0.55000
O520        O  0.50290461  0.64903433  0.16991220    -0.54100
O521        O  0.45398927  0.83072708  0.35231225    -0.55300
C522        C  0.48712555  0.81090609  0.30533962     0.77300
O523        O  0.48268305  0.87548580  0.31233855    -0.56500
C524        C  0.45238403  0.84576148  0.36314876     0.77300
C525        C  0.51757239  0.84653777  0.35375832     0.79600
Cd526      Cd  0.48111156  0.84414920  0.33168204     1.37500
O527        O  0.47667674  0.80931595  0.32063956    -0.55300
O528        O  0.50668810  0.83151906  0.35418869    -0.54200
C529        C  0.46567944  0.87370515  0.30503357     0.79600
O530        O  0.51210911  0.86052375  0.34276656    -0.56500
O531        O  0.49470195  0.82757227  0.30215315    -0.55000
O532        O  0.46376753  0.85996087  0.35948758    -0.55000
O533        O  0.45603681  0.85860894  0.30995033    -0.54100
O534        O  0.31252267  0.96880511  0.18791155    -0.55300
C535        C  0.34804997  0.94698147  0.14434353     0.77300
O536        O  0.36237212  0.00651027  0.16409251    -0.56500
C537        C  0.31288274  0.98139467  0.20159263     0.77300
C538        C  0.37607808  0.96015935  0.20297365     0.79600
Cd539      Cd  0.34652652  0.97542383  0.17601319     1.37500
O540        O  0.33314784  0.94838158  0.15535411    -0.55300
O541        O  0.36213746  0.94976112  0.19652753    -0.54200
C542        C  0.34803599  0.01181633  0.15350460     0.79600
O543        O  0.37670503  0.97782876  0.19710378    -0.56500
O544        O  0.36215378  0.95852777  0.14787123    -0.55000
O545        O  0.32862141  0.99100005  0.20366848    -0.55000
O546        O  0.33323308  0.00065240  0.15343705    -0.54100
O547        O  0.34782518  0.16930212  0.45369732    -0.55300
C548        C  0.30251365  0.18725394  0.49050904     0.77300
O549        O  0.31072070  0.12314960  0.48300708    -0.56500
C550        C  0.36035885  0.15560495  0.45282522     0.77300
C551        C  0.35143082  0.15256788  0.51818363     0.79600
Cd552      Cd  0.32910804  0.15503718  0.48191150     1.37500
O553        O  0.31612422  0.18908997  0.47798562    -0.55300
O554        O  0.35102524  0.16799972  0.50783357    -0.54200
C555        C  0.30337560  0.12488626  0.46599791     0.79600
O556        O  0.34136741  0.13814149  0.51210919    -0.56500
O557        O  0.30097265  0.17070870  0.49883129    -0.55000
O558        O  0.35863568  0.14190644  0.46526603    -0.55000
O559        O  0.30773108  0.14027772  0.45655899    -0.54100
O560        O  0.15499996  0.05056709  0.33341871    -0.55300
C561        C  0.20030239  0.01647332  0.31151015     0.77300
O562        O  0.19624580  0.02132004  0.37651782    -0.56500
C563        C  0.14356569  0.05103312  0.34806774     0.77300
C564        C  0.15550582  0.98572966  0.34924490     0.79600
Cd565      Cd  0.17589934  0.02303320  0.34596161     1.37500
O566        O  0.18535147  0.02746441  0.31067763    -0.55300
O567        O  0.15535072  0.99581607  0.33365473    -0.54200
C568        C  0.20377300  0.03822691  0.37459121     0.79600
O569        O  0.16538597  0.99246698  0.36348122    -0.56500
O570        O  0.20408262  0.00878216  0.32799831    -0.55000
O571        O  0.14696597  0.03882798  0.36165238    -0.55000
O572        O  0.19859625  0.04801387  0.35966655    -0.54100
O573        O  0.81381062  0.47123570  0.68987610    -0.55300
C574        C  0.84752359  0.44728932  0.64554023     0.77300
O575        O  0.86323220  0.50783700  0.66424086    -0.56500
C576        C  0.81460466  0.48515269  0.70219634     0.77300
C577        C  0.87647247  0.46286806  0.70331768     0.79600
Cd578      Cd  0.84709498  0.47709035  0.67596545     1.37500
O579        O  0.83253384  0.44992542  0.65618116    -0.55300
O580        O  0.86047886  0.45394842  0.70044140    -0.54200
C581        C  0.84933363  0.51293743  0.65300666     0.79600
O582        O  0.87919280  0.47854904  0.69365851    -0.56500
O583        O  0.86217926  0.45813729  0.64893627    -0.55000
O584        O  0.83007644  0.49539316  0.70228545    -0.55000
O585        O  0.83459359  0.50168770  0.65235139    -0.54100
O586        O  0.97568481  0.31204237  0.81777669    -0.55300
C587        C  0.95261113  0.34506849  0.86274288     0.77300
O588        O  0.01240769  0.36175286  0.84156847    -0.56500
C589        C  0.98771679  0.31360052  0.80369647     0.77300
C590        C  0.96476889  0.37586622  0.80525599     0.79600
Cd591      Cd  0.98101323  0.34580462  0.83094580     1.37500
O592        O  0.95391269  0.33104713  0.85060263    -0.55300
O593        O  0.95630532  0.35961925  0.80824180    -0.54200
C594        C  0.01783364  0.34769015  0.85249990     0.79600
O595        O  0.98086813  0.37861339  0.81412151    -0.56500
O596        O  0.96421673  0.35935233  0.86029101    -0.55000
O597        O  0.99678603  0.32975735  0.80223155    -0.55000
O598        O  0.00665670  0.33288504  0.85321965    -0.54100
O599        O  0.02950455  0.18676905  0.69298491    -0.55300
C600        C  0.05345124  0.14213613  0.65964338     0.77300
O601        O  0.99474452  0.16118311  0.64146226    -0.56500
C602        C  0.01708905  0.20051615  0.69152283     0.77300
C603        C  0.04003949  0.20099719  0.62952626     0.79600
Cd604      Cd  0.02460507  0.17381302  0.65891355     1.37500
O605        O  0.05171666  0.15403330  0.67383755    -0.55300
O606        O  0.04992821  0.19549768  0.64423559    -0.54200
C607        C  0.98821984  0.15144710  0.65593094     0.79600
O608        O  0.02295584  0.19387140  0.62792677    -0.56500
O609        O  0.04215614  0.14481198  0.64514697    -0.55000
O610        O  0.00812131  0.20189980  0.67532429    -0.55000
O611        O  0.99812895  0.15220798  0.67160952    -0.54100
O612        O  0.19438603  0.31668199  0.53272323    -0.55300
C613        C  0.15919208  0.35928913  0.55558742     0.77300
O614        O  0.14513773  0.33609877  0.49425840    -0.56500
C615        C  0.19344750  0.30192390  0.52147297     0.77300
C616        C  0.12963665  0.30237567  0.54264343     0.79600
Cd617      Cd  0.16003358  0.32791031  0.52687465     1.37500
O618        O  0.17435854  0.34887842  0.55310342    -0.55300
O619        O  0.14528165  0.30601419  0.55191898    -0.54200
C620        C  0.15751308  0.34926661  0.48990712     0.79600
O621        O  0.12783332  0.31028574  0.52588793    -0.56500
O622        O  0.14448889  0.35528234  0.54500239    -0.55000
O623        O  0.17735079  0.29914704  0.51269991    -0.55000
O624        O  0.17090191  0.35247836  0.50231686    -0.54100
C625        C  0.06704723  0.23948148  0.59180529     0.19500
C626        C  0.06171087  0.25934385  0.59004278    -0.09600
C627        C  0.07325390  0.27230826  0.57885892    -0.10500
C628        C  0.09022532  0.26551342  0.56935267     0.21100
C629        C  0.09533030  0.24560349  0.57085711    -0.12500
C630        C  0.08381721  0.23267324  0.58201149    -0.10800
C631        C  0.10298826  0.27898238  0.55888788     0.02000
C632        C  0.11468066  0.28980143  0.55093459    -0.30800
C633        C  0.05601255  0.22621634  0.60433269     0.03400
C634        C  0.04803323  0.21475301  0.61541107    -0.32500
H635        H  0.04884372  0.26487263  0.59757694     0.14500
H636        H  0.06914413  0.28766831  0.57791761     0.14300
H637        H  0.10842294  0.24013104  0.56368508     0.14100
H638        H  0.08819507  0.21741387  0.58327411     0.13200
C639        C  0.00552538  0.24057051  0.73513402     0.19500
C640        C  0.01676582  0.24162217  0.75238125    -0.09600
C641        C  0.01279600  0.25606010  0.76655433    -0.10500
C642        C  0.99754922  0.26959240  0.76362543     0.21100
C643        C  0.98622009  0.26845774  0.74644146    -0.12500
C644        C  0.99018882  0.25402070  0.73227056    -0.10800
C645        C  0.99379068  0.28481980  0.77803592     0.02000
C646        C  0.99091342  0.29779009  0.78989161    -0.30800
C647        C  0.00986701  0.22594337  0.72026195     0.03400
C648        C  0.01333404  0.21408289  0.70743317    -0.32500
H649        H  0.02866880  0.23136823  0.75482076     0.14500
H650        H  0.02170009  0.25674817  0.77972724     0.14300
H651        H  0.97440718  0.27880977  0.74393406     0.14100
H652        H  0.98137470  0.25342595  0.71902577     0.13200
C653        C  0.91454544  0.43702544  0.74191852     0.19500
C654        C  0.93048759  0.42605034  0.73490637    -0.09600
C655        C  0.94178569  0.41473093  0.74789365    -0.10500
C656        C  0.93724008  0.41429307  0.76800912     0.21100
C657        C  0.92147610  0.42550403  0.77505358    -0.12500
C658        C  0.91017989  0.43681732  0.76207057    -0.10800
C659        C  0.94810550  0.40168060  0.78125936     0.02000
C660        C  0.95630093  0.39039389  0.79231181    -0.30800
C661        C  0.90204320  0.44756813  0.72834227     0.03400
C662        C  0.89082869  0.45527044  0.71690458    -0.32500
H663        H  0.93396837  0.42596526  0.71936153     0.14500
H664        H  0.95385220  0.40607681  0.74220360     0.14300
H665        H  0.91771611  0.42524442  0.79053204     0.14100
H666        H  0.89783861  0.44511981  0.76769639     0.13200
C667        C  0.26482482  0.23211954  0.50437949     0.19500
C668        C  0.25008116  0.22904954  0.51843902    -0.09600
C669        C  0.23653100  0.24395935  0.52263360    -0.10500
C670        C  0.23760267  0.26207335  0.51281710     0.21100
C671        C  0.25254618  0.26526348  0.49900099    -0.12500
C672        C  0.26610246  0.25035143  0.49480875    -0.10800
C673        C  0.22286442  0.27697006  0.51629993     0.02000
C674        C  0.20980694  0.28874527  0.51883605    -0.30800
C675        C  0.27832075  0.21645962  0.49944967     0.03400
C676        C  0.28942001  0.20323600  0.49521816    -0.32500
H677        H  0.24890224  0.21505036  0.52596658     0.14500
H678        H  0.22503899  0.24125492  0.53330908     0.14300
H679        H  0.25354060  0.27915301  0.49125838     0.14100
H680        H  0.27741022  0.25294922  0.48392212     0.13200
C681        C  0.26704181  0.08614343  0.43779972     0.19500
C682        C  0.27476260  0.07332182  0.42361813    -0.09600
C683        C  0.26219096  0.06232856  0.41153751    -0.10500
C684        C  0.24178012  0.06405928  0.41352949     0.21100
C685        C  0.23408130  0.07657700  0.42798206    -0.12500
C686        C  0.24664385  0.08756547  0.44005161    -0.10800
C687        C  0.22872608  0.05378167  0.40021833     0.02000
C688        C  0.21748029  0.04614861  0.38872694    -0.30800
C689        C  0.27994722  0.09870216  0.44914175     0.03400
C690        C  0.29066727  0.11014750  0.45755159    -0.32500
H691        H  0.29048493  0.07213107  0.42162004     0.14500
H692        H  0.26838071  0.05277709  0.40040605     0.14300
H693        H  0.21835695  0.07813215  0.42967019     0.14100
H694        H  0.24043958  0.09747207  0.45085754     0.13200
C695        C  0.23842946  0.00342511  0.26691121     0.19500
C696        C  0.23392620  0.00287475  0.24677201    -0.09600
C697        C  0.24839906  0.99771318  0.23300993    -0.10500
C698        C  0.26745589  0.99304833  0.23929917     0.21100
C699        C  0.27185467  0.99348288  0.25942455    -0.12500
C700        C  0.25743444  0.99863203  0.27313774    -0.10800
C701        C  0.28270560  0.98827664  0.22526333     0.02000
C702        C  0.29619172  0.98478044  0.21421490    -0.30800
C703        C  0.22376428  0.00878580  0.28135779     0.03400
C704        C  0.21254818  0.01273703  0.29459024    -0.32500
H705        H  0.21930391  0.00649319  0.24171777     0.14500
H706        H  0.24476984  0.99748053  0.21750533     0.14300
H707        H  0.28649663  0.98995637  0.26452178     0.14100
H708        H  0.26113843  0.99894265  0.28863351     0.13200
C709        C  0.41419940  0.93268775  0.24063054     0.19500
C710        C  0.42569711  0.94216234  0.25489972    -0.09600
C711        C  0.43739643  0.93112459  0.26783404    -0.10500
C712        C  0.43769597  0.91052347  0.26659717     0.21100
C713        C  0.42629554  0.90110094  0.25225170    -0.12500
C714        C  0.41462512  0.91210949  0.23935384    -0.10800
C715        C  0.44908716  0.89888399  0.28032155     0.02000
C716        C  0.45745495  0.88802235  0.29168247    -0.30800
C717        C  0.40164219  0.94384860  0.22751975     0.03400
C718        C  0.39042141  0.95203850  0.21637361    -0.32500
H719        H  0.42550412  0.95804794  0.25612307     0.14500
H720        H  0.44605479  0.93863348  0.27888859     0.14300
H721        H  0.42628874  0.88520934  0.25114471     0.14100
H722        H  0.40581001  0.90454913  0.22846722     0.13200
C723        C  0.49922934  0.76671544  0.26614382     0.19500
C724        C  0.51441547  0.77040342  0.25271703    -0.09600
C725        C  0.51928306  0.75642545  0.23838815    -0.10500
C726        C  0.50902003  0.73858207  0.23731789     0.21100
C727        C  0.49397215  0.73476448  0.25088698    -0.12500
C728        C  0.48909595  0.74876589  0.26523854    -0.10800
C729        C  0.51349787  0.72455933  0.22191820     0.02000
C730        C  0.51683677  0.71324653  0.20857543    -0.30800
C731        C  0.49403162  0.78150678  0.28058226     0.03400
C732        C  0.49043065  0.79457316  0.29214718    -0.32500
H733        H  0.52239901  0.78417898  0.25321829     0.14500
H734        H  0.53091317  0.75963131  0.22800541     0.14300
H735        H  0.48587174  0.72107281  0.25023924     0.14100
H736        H  0.47733914  0.74566399  0.27549611     0.13200
C737        C  0.56839878  0.73881457  0.09111757     0.19500
C738        C  0.57391826  0.75704987  0.09897470    -0.09600
C739        C  0.58539216  0.77009352  0.08793426    -0.10500
C740        C  0.59148225  0.76506306  0.06890285     0.21100
C741        C  0.58588100  0.74686079  0.06095317    -0.12500
C742        C  0.57437766  0.73378100  0.07202411    -0.10800
C743        C  0.60394910  0.77839999  0.05795729     0.02000
C744        C  0.61504973  0.78980667  0.04999296    -0.30800
C745        C  0.55737035  0.72508554  0.10306848     0.03400
C746        C  0.54920616  0.71388994  0.11424099    -0.32500
H747        H  0.56953476  0.76110245  0.11373718     0.14500
H748        H  0.58967373  0.78403941  0.09432282     0.14300
H749        H  0.59055404  0.74270995  0.04630325     0.14100
H750        H  0.57034176  0.71968556  0.06579311     0.13200
C751        C  0.77166205  0.49683154  0.74265569     0.19500
C752        C  0.75592460  0.50946582  0.73857289    -0.09600
C753        C  0.74201281  0.51370562  0.75315748    -0.10500
C754        C  0.74372420  0.50535867  0.77195164     0.21100
C755        C  0.75947851  0.49274005  0.77602196    -0.12500
C756        C  0.77338033  0.48850209  0.76144753    -0.10800
C757        C  0.72933647  0.50964004  0.78702255     0.02000
C758        C  0.71742404  0.51292199  0.79981912    -0.30800
C759        C  0.78617773  0.49258317  0.72772967     0.03400
C760        C  0.79880678  0.48908333  0.71573052    -0.32500
H761        H  0.75442249  0.51605332  0.72414183     0.14500
H762        H  0.72993103  0.52348261  0.74977895     0.14300
H763        H  0.76101420  0.48617455  0.79046122     0.14100
H764        H  0.78548119  0.47875228  0.76484318     0.13200
C765        C  0.73307563  0.76111614  0.00567041     0.19500
C766        C  0.72795195  0.74224720  0.99912551    -0.09600
C767        C  0.74255519  0.72837300  0.99491444    -0.10500
C768        C  0.76243109  0.73321908  0.99719284     0.21100
C769        C  0.76756081  0.75208883  0.00376456    -0.12500
C770        C  0.75294674  0.76597414  0.00797804    -0.10800
C771        C  0.77743341  0.71873144  0.99298866     0.02000
C772        C  0.78943512  0.70601601  0.98970955    -0.30800
C773        C  0.71798199  0.77544114  0.00999992     0.03400
C774        C  0.70531703  0.78737432  0.01360976    -0.32500
H775        H  0.71267138  0.73825591  0.99728109     0.14500
H776        H  0.73834270  0.71384867  0.98990018     0.14300
H777        H  0.78283602  0.75605849  0.00565147     0.14100
H778        H  0.75714243  0.78048288  0.01303545     0.13200
C779        C  0.73795772  0.56567259  0.91696259     0.19500
C780        C  0.75794023  0.56076208  0.91761325    -0.09600
C781        C  0.77114656  0.57234239  0.92842734    -0.10500
C782        C  0.76450332  0.58895007  0.93870339     0.21100
C783        C  0.74446216  0.59361208  0.93835546    -0.12500
C784        C  0.73126900  0.58204344  0.92755295    -0.10800
C785        C  0.77826056  0.60169640  0.94885639     0.02000
C786        C  0.78957650  0.61307685  0.95660894    -0.30800
C787        C  0.72456496  0.55477057  0.90448097     0.03400
C788        C  0.71351019  0.54677535  0.89303593    -0.32500
H789        H  0.76338037  0.54823283  0.90943138     0.14500
H790        H  0.78658121  0.56855334  0.92847666     0.14300
H791        H  0.73907944  0.60640846  0.94614553     0.14100
H792        H  0.71591529  0.58611583  0.92712835     0.13200
C793        C  0.15918912  0.40756637  0.40677117     0.19500
C794        C  0.17647826  0.40072603  0.41558609    -0.09600
C795        C  0.17557103  0.38821401  0.43193874    -0.10500
C796        C  0.15736898  0.38241938  0.43962381     0.21100
C797        C  0.14006754  0.38909827  0.43069082    -0.12500
C798        C  0.14097536  0.40161777  0.41432607    -0.10800
C799        C  0.15653755  0.37006575  0.45693387     0.02000
C800        C  0.15651848  0.36022497  0.47176732    -0.30800
C801        C  0.16014109  0.42117622  0.39044285     0.03400
C802        C  0.16077184  0.43309827  0.37724305    -0.32500
H803        H  0.19065345  0.40523715  0.40995850     0.14500
H804        H  0.18906394  0.38321329  0.43870625     0.14300
H805        H  0.12589495  0.38478788  0.43648460     0.14100
H806        H  0.12748769  0.40683109  0.40770727     0.13200
C807        C  0.06760041  0.41519762  0.24210552     0.19500
C808        C  0.06630927  0.41201767  0.26245488    -0.09600
C809        C  0.07785084  0.42308058  0.27546498    -0.10500
C810        C  0.09079314  0.43742274  0.26824558     0.21100
C811        C  0.09161987  0.44102023  0.24795040    -0.12500
C812        C  0.08008353  0.42996275  0.23494655    -0.10800
C813        C  0.10409848  0.44749925  0.28145467     0.02000
C814        C  0.11601414  0.45502044  0.29232089    -0.30800
C815        C  0.05724971  0.40245039  0.22854645     0.03400
C816        C  0.04974620  0.39095817  0.21720164    -0.32500
H817        H  0.05679220  0.40062301  0.26822595     0.14500
H818        H  0.07707213  0.42008039  0.29109773     0.14300
H819        H  0.10157138  0.45200266  0.24212965     0.14100
H820        H  0.08130754  0.43256194  0.21927482     0.13200
C821        C  0.06516547  0.11550322  0.35525573     0.19500
C822        C  0.08374784  0.12252292  0.34980036    -0.09600
C823        C  0.09973246  0.10960168  0.34843649    -0.10500
C824        C  0.09731305  0.08951192  0.35249513     0.21100
C825        C  0.07877641  0.08252559  0.35815137    -0.12500
C826        C  0.06279324  0.09544602  0.35951582    -0.10800
C827        C  0.11375031  0.07608286  0.35071295     0.02000
C828        C  0.12741442  0.06476209  0.34930772    -0.30800
C829        C  0.04841572  0.12865723  0.35568363     0.03400
C830        C  0.03411111  0.13923366  0.35507794    -0.32500
H831        H  0.08583687  0.13794706  0.34638539     0.14500
H832        H  0.11394217  0.11525690  0.34406557     0.14300
H833        H  0.07663888  0.06706557  0.36135753     0.14100
H834        H  0.04853859  0.08975012  0.36367884     0.13200
C835        C  0.00824247  0.26899790  0.24305705     0.19500
C836        C  0.02367948  0.25819409  0.25136715    -0.09600
C837        C  0.01979933  0.24334918  0.26515502    -0.10500
C838        C  0.00044016  0.23915238  0.27076905     0.21100
C839        C  0.98499023  0.24987182  0.26235496    -0.12500
C840        C  0.98887078  0.26472025  0.24856458    -0.10800
C841        C  0.99648773  0.22432541  0.28557403     0.02000
C842        C  0.99320721  0.21251572  0.29851785    -0.30800
C843        C  0.01230171  0.28459493  0.22912266     0.03400
C844        C  0.01572616  0.29779661  0.21766469    -0.32500
H845        H  0.03872324  0.26132902  0.24728789     0.14500
H846        H  0.03190486  0.23526267  0.27155820     0.14300
H847        H  0.96995710  0.24686606  0.26657923     0.14100
H848        H  0.97677947  0.27294465  0.24229922     0.13200
C849        C  0.85025328  0.40900843  0.59930132     0.19500
C850        C  0.84548990  0.41651706  0.58070932    -0.09600
C851        C  0.84689798  0.40456958  0.56402656    -0.10500
C852        C  0.85309242  0.38500337  0.56578069     0.21100
C853        C  0.85798640  0.37748882  0.58435614    -0.12500
C854        C  0.85658243  0.38946400  0.60107297    -0.10800
C855        C  0.85371120  0.37257737  0.54858388     0.02000
C856        C  0.85313370  0.36260267  0.53389672    -0.30800
C857        C  0.84884646  0.42153032  0.61639358     0.03400
C858        C  0.84792486  0.43285690  0.63005486    -0.32500
H859        H  0.84064144  0.43160529  0.57911613     0.14500
H860        H  0.84300906  0.41054775  0.54977552     0.14300
H861        H  0.86273336  0.36237091  0.58593003     0.14100
H862        H  0.86037284  0.38348612  0.61534445     0.13200
C863        C  0.91503293  0.26639496  0.43663175     0.19500
C864        C  0.92684157  0.27376529  0.42142642    -0.09600
C865        C  0.93819493  0.26094258  0.41000165    -0.10500
C866        C  0.93783015  0.24064809  0.41369044     0.21100
C867        C  0.92622102  0.23332636  0.42907163    -0.12500
C868        C  0.91487257  0.24614301  0.44049172    -0.10800
C869        C  0.94864017  0.22727064  0.40119766     0.02000
C870        C  0.95677490  0.21588250  0.39022592    -0.30800
C871        C  0.90234745  0.27942738  0.44757243     0.03400
C872        C  0.89088313  0.29015516  0.45585560    -0.32500
H873        H  0.92702864  0.28936425  0.41819813     0.14500
H874        H  0.94701113  0.26681455  0.39811511     0.14300
H875        H  0.92571012  0.21767577  0.43204140     0.14100
H876        H  0.90573321  0.24022464  0.45211862     0.13200
C877        C  0.44132234  0.61730915  0.15542614     0.19500
C878        C  0.44322215  0.59737923  0.15051304    -0.09600
C879        C  0.42689913  0.58488829  0.15128394    -0.10500
C880        C  0.40854808  0.59221979  0.15699377     0.21100
C881        C  0.40660934  0.61216896  0.16180318    -0.12500
C882        C  0.42294303  0.62466764  0.16103142    -0.10800
C883        C  0.39184006  0.57919961  0.15811564     0.02000
C884        C  0.37824109  0.56782423  0.15898752    -0.30800
C885        C  0.45829871  0.63005135  0.15510413     0.03400
C886        C  0.47280461  0.64029766  0.15530765    -0.32500
H887        H  0.45733868  0.59147650  0.14620040     0.14500
H888        H  0.42861102  0.56949873  0.14753885     0.14300
H889        H  0.39251843  0.61802792  0.16625138     0.14100
H890        H  0.42126727  0.64002400  0.16491188     0.13200
C891        C  0.23814857  0.49861443  0.26692147     0.19500
C892        C  0.23289255  0.50247739  0.24736756    -0.09600
C893        C  0.24731020  0.50691422  0.23338416    -0.10500
C894        C  0.26714079  0.50754587  0.23880115     0.21100
C895        C  0.27242711  0.50383090  0.25839590    -0.12500
C896        C  0.25797754  0.49938706  0.27241030    -0.10800
C897        C  0.28193212  0.51160280  0.22408859     0.02000
C898        C  0.29357165  0.51462223  0.21099388    -0.30800
C899        C  0.22314599  0.49377758  0.28118719     0.03400
C900        C  0.21004541  0.48987830  0.29255685    -0.32500
H901        H  0.21764439  0.50195923  0.24290270     0.14500
H902        H  0.24299837  0.50972685  0.21830623     0.14300
H903        H  0.28769364  0.50424220  0.26280267     0.14100
H904        H  0.26226854  0.49645717  0.28747058     0.13200
C905        C  0.26677625  0.56547131  0.09257281     0.19500
C906        C  0.27375750  0.57969259  0.07935430    -0.09600
C907        C  0.26063640  0.59032630  0.06756479    -0.10500
C908        C  0.24039599  0.58684565  0.06886488     0.21100
C909        C  0.23342754  0.57237909  0.08182328    -0.12500
C910        C  0.24655572  0.56173978  0.09361810    -0.10800
C911        C  0.22678998  0.59889700  0.05780953     0.02000
C912        C  0.21558898  0.60999717  0.04958289    -0.30800
C913        C  0.28025011  0.55538092  0.10561784     0.03400
C914        C  0.29152102  0.54771752  0.11707355    -0.32500
H915        H  0.28932120  0.58280690  0.07840931     0.14500
H916        H  0.26625000  0.60152578  0.05771093     0.14300
H917        H  0.21783395  0.56958603  0.08308719     0.14100
H918        H  0.24090945  0.55085974  0.10379158     0.13200
C919        C  0.35354552  0.88269582  0.06584116     0.19500
C920        C  0.36403929  0.90043955  0.06583871    -0.09600
C921        C  0.36304831  0.91309683  0.08206340    -0.10500
C922        C  0.35154272  0.90813280  0.09843095     0.21100
C923        C  0.34123223  0.89027952  0.09853653    -0.12500
C924        C  0.34222357  0.87761794  0.08230634    -0.10800
C925        C  0.35009186  0.92149380  0.11491470     0.02000
C926        C  0.34897415  0.93296419  0.12846502    -0.30800
C927        C  0.35376167  0.87013105  0.04868000     0.03400
C928        C  0.35317228  0.86012315  0.03398293    -0.32500
H929        H  0.37279457  0.90460047  0.05320346     0.14500
H930        H  0.37109796  0.92683841  0.08176299     0.14300
H931        H  0.33228236  0.88623955  0.11106996     0.14100
H932        H  0.33397956  0.86399408  0.08250131     0.13200
C933        C  0.27169005  0.76002605  0.99997537     0.19500
C934        C  0.26340960  0.75923629  0.01884154    -0.09600
C935        C  0.24946065  0.74480145  0.02344608    -0.10500
C936        C  0.24369945  0.73104920  0.00921406     0.21100
C937        C  0.25189637  0.73192051  0.99032134    -0.12500
C938        C  0.26583631  0.74634485  0.98572026    -0.10800
C939        C  0.22957394  0.71591781  0.01395566     0.02000
C940        C  0.21794232  0.70290379  0.01727962    -0.30800
C941        C  0.28646189  0.77457082  0.99537312     0.03400
C942        C  0.29919060  0.78641585  0.99172696    -0.32500
H943        H  0.26782417  0.76968889  0.03001564     0.14500
H944        H  0.24326109  0.74430155  0.03810433     0.14300
H945        H  0.24758886  0.72138199  0.97917971     0.14100
H946        H  0.27213526  0.74675010  0.97109698     0.13200
C947        C  0.59835893  0.59062472  0.84699935     0.19500
C948        C  0.59746884  0.60523857  0.86152163    -0.09600
C949        C  0.58129095  0.61790868  0.86250598    -0.10500
C950        C  0.56587749  0.61604355  0.84898255     0.21100
C951        C  0.56678562  0.60144203  0.83445656    -0.12500
C952        C  0.58295064  0.58878144  0.83347347    -0.10800
C953        C  0.54904762  0.62891639  0.85002280     0.02000
C954        C  0.53452757  0.63911748  0.85023209    -0.30800
C955        C  0.61490629  0.57737192  0.84613851     0.03400
C956        C  0.62852225  0.56598834  0.84575461    -0.32500
H957        H  0.60924469  0.60680121  0.87210422     0.14500
H958        H  0.58077844  0.62909988  0.87382647     0.14300
H959        H  0.55496836  0.59980880  0.82392573     0.14100
H960        H  0.58340813  0.57753069  0.82220687     0.13200
C961        C  0.41155731  0.76045148  0.93624007     0.19500
C962        C  0.40261149  0.74814067  0.92235593    -0.09600
C963        C  0.41389437  0.73488068  0.91143692    -0.10500
C964        C  0.43422773  0.73380990  0.91430118     0.21100
C965        C  0.44317954  0.74599305  0.92831183    -0.12500
C966        C  0.43187401  0.75927791  0.93925414    -0.10800
C967        C  0.44582607  0.72066747  0.90235104     0.02000
C968        C  0.45458740  0.70989681  0.89128484    -0.30800
C969        C  0.39984114  0.77447489  0.94700834     0.03400
C970        C  0.38919205  0.78609478  0.95516397    -0.32500
H971        H  0.38693787  0.74891029  0.91985118     0.14500
H972        H  0.40679022  0.72560698  0.90061966     0.14300
H973        H  0.45889250  0.74536373  0.93062800     0.14100
H974        H  0.43898140  0.76873216  0.94991856     0.13200
C975        C  0.74367666  0.23243326  0.51145192     0.19500
C976        C  0.76340485  0.22970014  0.51661074    -0.09600
C977        C  0.77738672  0.24415998  0.51214743    -0.10500
C978        C  0.77178832  0.26149973  0.50247458     0.21100
C979        C  0.75203918  0.26427264  0.49738998    -0.12500
C980        C  0.73805015  0.24980575  0.50185562    -0.10800
C981        C  0.78633801  0.27628772  0.49765805     0.02000
C982        C  0.79891082  0.28826615  0.49372910    -0.30800
C983        C  0.72934209  0.21726040  0.51559969     0.03400
C984        C  0.71750963  0.20430749  0.51857080    -0.32500
H985        H  0.76800110  0.21634463  0.52398011     0.14500
H986        H  0.79258061  0.24177839  0.51616486     0.14300
H987        H  0.74746861  0.27756494  0.48990460     0.14100
H988        H  0.72288416  0.25211962  0.49772550     0.13200
C989        C  0.93938898  0.11611434  0.65457320     0.19500
C990        C  0.92852995  0.11337120  0.67189106    -0.09600
C991        C  0.91268561  0.10020620  0.67226383    -0.10500
C992        C  0.90752831  0.08963461  0.65532714     0.21100
C993        C  0.91833691  0.09242009  0.63798474    -0.12500
C994        C  0.93418744  0.10558994  0.63761219    -0.10800
C995        C  0.89120687  0.07596852  0.65577513     0.02000
C996        C  0.87753497  0.06458295  0.65623258    -0.30800
C997        C  0.95613398  0.12928562  0.65438185     0.03400
C998        C  0.97052195  0.13977127  0.65469303    -0.32500
H999        H  0.93238201  0.12132374  0.68514233     0.14500
H1000       H  0.90449585  0.09823129  0.68577832     0.14300
H1001       H  0.91455334  0.08437463  0.62477215     0.14100
H1002       H  0.94245210  0.10747562  0.62413300     0.13200
C1003       C  0.73634404  0.08543318  0.56732990     0.19500
C1004       C  0.72926537  0.07277697  0.58200270    -0.09600
C1005       C  0.74237062  0.06177800  0.59345463    -0.10500
C1006       C  0.76264321  0.06336850  0.59031628     0.21100
C1007       C  0.76968221  0.07570514  0.57537347    -0.12500
C1008       C  0.75658862  0.08669355  0.56393155    -0.10800
C1009       C  0.77626019  0.05326738  0.60308094     0.02000
C1010       C  0.78782220  0.04584901  0.61433247    -0.30800
C1011       C  0.72303499  0.09811377  0.55671018     0.03400
C1012       C  0.71230037  0.10989850  0.54887220    -0.32500
H1013       H  0.71366519  0.07175098  0.58488351     0.14500
H1014       H  0.73672652  0.05237401  0.60501686     0.14300
H1015       H  0.78530789  0.07715286  0.57284714     0.14100
H1016       H  0.76227727  0.09650392  0.55273925     0.13200
C1017       C  0.49750099  0.73931716  0.77089148     0.19500
C1018       C  0.51691263  0.74400622  0.76593119    -0.09600
C1019       C  0.52084033  0.75851419  0.75182565    -0.10500
C1020       C  0.50539296  0.76847267  0.74254556     0.21100
C1021       C  0.48596395  0.76366860  0.74738569    -0.12500
C1022       C  0.48203306  0.74915087  0.76150184    -0.10800
C1023       C  0.50949796  0.78381963  0.72836267     0.02000
C1024       C  0.51296913  0.79688609  0.71676744    -0.30800
C1025       C  0.49352957  0.72477827  0.78590883     0.03400
C1026       C  0.49051232  0.71294073  0.79884853    -0.32500
H1027       H  0.52901638  0.73655988  0.77308374     0.14500
H1028       H  0.53592519  0.76206853  0.74826502     0.14300
H1029       H  0.47386981  0.77124022  0.74036498     0.14100
H1030       H  0.46696075  0.74571656  0.76520001     0.13200
C1031       C  0.65824770  0.88701143  0.94136042     0.19500
C1032       C  0.64103214  0.89442253  0.93288040    -0.09600
C1033       C  0.64201373  0.90640308  0.91614996    -0.10500
C1034       C  0.66021601  0.91108037  0.90775862     0.21100
C1035       C  0.67744920  0.90365958  0.91621358    -0.12500
C1036       C  0.67646640  0.89166774  0.93295627    -0.10800
C1037       C  0.66113424  0.92381927  0.89077309     0.02000
C1038       C  0.66127124  0.93498254  0.87693418    -0.30800
C1039       C  0.65723350  0.87472436  0.95868999     0.03400
C1040       C  0.65679878  0.86455179  0.97328205    -0.32500
H1041       H  0.62686026  0.89097441  0.93922050     0.14500
H1042       H  0.62858485  0.91208982  0.90981044     0.14300
H1043       H  0.69162120  0.90720685  0.90992779     0.14100
H1044       H  0.68989807  0.88606576  0.93936651     0.13200
C1045       C  0.76348294  0.00580934  0.73469239     0.19500
C1046       C  0.74381531  0.00351962  0.72912374    -0.09600
C1047       C  0.72950412  0.99922494  0.74325319    -0.10500
C1048       C  0.73472821  0.99716500  0.76308137     0.21100
C1049       C  0.75439797  0.99946545  0.76868534    -0.12500
C1050       C  0.76873286  0.00376651  0.75453235    -0.10800
C1051       C  0.71985611  0.99272899  0.77756157     0.02000
C1052       C  0.70694449  0.98914626  0.78921437    -0.30800
C1053       C  0.77817330  0.01008714  0.71996987     0.03400
C1054       C  0.78987784  0.01336529  0.70701121    -0.32500
H1055       H  0.73954583  0.00503199  0.71384733     0.14500
H1056       H  0.71436523  0.99749495  0.73871241     0.14300
H1057       H  0.75864577  0.99792161  0.78395594     0.14100
H1058       H  0.78387480  0.00547169  0.75904696     0.13200
C1059       C  0.56693108  0.91210786  0.74118032     0.19500
C1060       C  0.57291937  0.90391707  0.75912474    -0.09600
C1061       C  0.58438625  0.91488609  0.77221694    -0.10500
C1062       C  0.58998232  0.93415812  0.76749255     0.21100
C1063       C  0.58376418  0.94247922  0.74966984    -0.12500
C1064       C  0.57227898  0.93148945  0.73655270    -0.10800
C1065       C  0.60282038  0.94494435  0.78053841     0.02000
C1066       C  0.61436297  0.95304442  0.79135218    -0.30800
C1067       C  0.55612596  0.90022758  0.72726601     0.03400
C1068       C  0.54809764  0.88918327  0.71588182    -0.32500
H1069       H  0.56898428  0.88893700  0.76286096     0.14500
H1070       H  0.58914784  0.90822648  0.78588073     0.14300
H1071       H  0.58805245  0.95732790  0.74577954     0.14100
H1072       H  0.56783977  0.93798532  0.72269584     0.13200
C1073       C  0.91303414  0.65702898  0.09774799     0.19500
C1074       C  0.89396412  0.66457420  0.09940334    -0.09600
C1075       C  0.88117623  0.66406377  0.08325697    -0.10500
C1076       C  0.88733508  0.65597951  0.06531563     0.21100
C1077       C  0.90638726  0.64837124  0.06369248    -0.12500
C1078       C  0.91917001  0.64888136  0.07983197    -0.10800
C1079       C  0.87424900  0.65565947  0.04853464     0.02000
C1080       C  0.86371859  0.65558029  0.03418730    -0.30800
C1081       C  0.92636572  0.65783206  0.11429511     0.03400
C1082       C  0.93781619  0.65843989  0.12788479    -0.32500
H1083       H  0.88901139  0.67092865  0.11313924     0.14500
H1084       H  0.86651796  0.67002549  0.08474643     0.14300
H1085       H  0.91138162  0.64210097  0.04993342     0.14100
H1086       H  0.93385990  0.64300506  0.07831089     0.13200
C1087       C  0.06543640  0.65325023  0.11664315     0.19500
C1088       C  0.08380194  0.65967546  0.12337024    -0.09600
C1089       C  0.09998158  0.65989789  0.11065023    -0.10500
C1090       C  0.09792915  0.65372125  0.09108550     0.21100
C1091       C  0.07957424  0.64726639  0.08436306    -0.12500
C1092       C  0.06339715  0.64704419  0.09708132    -0.10800
C1093       C  0.11456212  0.65414682  0.07788625     0.02000
C1094       C  0.12834003  0.65450481  0.06667869    -0.30800
C1095       C  0.04865641  0.65329073  0.12968263     0.03400
C1096       C  0.03438641  0.65377078  0.14026487    -0.32500
H1097       H  0.08560058  0.66456311  0.13842504     0.14500
H1098       H  0.11406388  0.66494397  0.11605143     0.14300
H1099       H  0.07775399  0.64247008  0.06928311     0.14100
H1100       H  0.04929588  0.64208814  0.09164746     0.13200
C1101       C  0.84985988  0.40423825  0.41047198     0.19500
C1102       C  0.86668191  0.41614242  0.41049009    -0.09600
C1103       C  0.86812602  0.43217512  0.39758820    -0.10500
C1104       C  0.85276835  0.43642783  0.38453638     0.21100
C1105       C  0.83610108  0.42431998  0.38429922    -0.12500
C1106       C  0.83465599  0.40829818  0.39719708    -0.10800
C1107       C  0.85364085  0.45366428  0.37204998     0.02000
C1108       C  0.85340512  0.46850460  0.36220131    -0.30800
C1109       C  0.84800060  0.38823616  0.42439742     0.03400
C1110       C  0.84676226  0.37515506  0.43641599    -0.32500
H1111       H  0.87855648  0.41319765  0.42066325     0.14500
H1112       H  0.88107159  0.44141808  0.39800104     0.14300
H1113       H  0.82408614  0.42744398  0.37435039     0.14100
H1114       H  0.82157129  0.39924945  0.39700198     0.13200
C1115       C  0.91304118  0.57065925  0.26628952     0.19500
C1116       C  0.90405890  0.57985205  0.25017222    -0.09600
C1117       C  0.91517269  0.59129066  0.23713368    -0.10500
C1118       C  0.93539854  0.59366974  0.24006206     0.21100
C1119       C  0.94443209  0.58437304  0.25610780    -0.12500
C1120       C  0.93329956  0.57291582  0.26916890    -0.10800
C1121       C  0.94666382  0.60598610  0.22682713     0.02000
C1122       C  0.95523452  0.61685906  0.21562080    -0.30800
C1123       C  0.90131000  0.55938793  0.28003135     0.03400
C1124       C  0.89063103  0.55070600  0.29132246    -0.32500
H1125       H  0.88842003  0.57830488  0.24776884     0.14500
H1126       H  0.90795788  0.59840686  0.22484378     0.14300
H1127       H  0.96002594  0.58609826  0.25860736     0.14100
H1128       H  0.94045354  0.56596259  0.28157289     0.13200
C1129       C  0.12108463  0.93654128  0.34979519     0.19500
C1130       C  0.10577648  0.93643675  0.33602139    -0.09600
C1131       C  0.09291150  0.92042000  0.33496672    -0.10500
C1132       C  0.09525608  0.90436312  0.34767351     0.21100
C1133       C  0.11052727  0.90446542  0.36149433    -0.12500
C1134       C  0.12340857  0.92050213  0.36254977    -0.10800
C1135       C  0.08181723  0.88797653  0.34671939     0.02000
C1136       C  0.07018388  0.87457552  0.34628207    -0.30800
C1137       C  0.13426159  0.95316661  0.35074836     0.03400
C1138       C  0.14453053  0.96767068  0.35065098    -0.32500
H1139       H  0.10378353  0.94874840  0.32609939     0.14500
H1140       H  0.08113157  0.92057121  0.32427132     0.14300
H1141       H  0.11245424  0.89217668  0.37145754     0.14100
H1142       H  0.13514672  0.92039866  0.37329063     0.13200
C1143       C  0.00009622  0.73382080  0.24238005     0.19500
C1144       C  0.99235879  0.73106254  0.26129206    -0.09600
C1145       C  0.99574379  0.74502997  0.27604262    -0.10500
C1146       C  0.00690057  0.76188562  0.27201158     0.21100
C1147       C  0.01462817  0.76466751  0.25309621    -0.12500
C1148       C  0.01124084  0.75068965  0.23833512    -0.10800
C1149       C  0.01054480  0.77619131  0.28730369     0.02000
C1150       C  0.01373234  0.78797226  0.30023393    -0.30800
C1151       C  0.99663993  0.71927692  0.22725657     0.03400
C1152       C  0.99350404  0.70665675  0.21511962    -0.32500
H1153       H  0.98373546  0.71809517  0.26464321     0.14500
H1154       H  0.98970049  0.74266438  0.29059073     0.14300
H1155       H  0.02330035  0.77761059  0.24977471     0.14100
H1156       H  0.01733074  0.75301717  0.22379965     0.13200
C1157       C  0.15864499  0.56464462  0.38704634     0.19500
C1158       C  0.17485063  0.56735136  0.39946617    -0.09600
C1159       C  0.17586386  0.58376182  0.41188298    -0.10500
C1160       C  0.16068132  0.59765713  0.41201145     0.21100
C1161       C  0.14458455  0.59511425  0.39939467    -0.12500
C1162       C  0.14356926  0.57868072  0.38696238    -0.10800
C1163       C  0.16129704  0.61406103  0.42557747     0.02000
C1164       C  0.16139299  0.62734615  0.43743083    -0.30800
C1165       C  0.15745730  0.54729532  0.37474029     0.03400
C1166       C  0.15726528  0.53240585  0.36496817    -0.32500
H1167       H  0.18662199  0.55665595  0.39970333     0.14500
H1168       H  0.18837279  0.58548044  0.42155907     0.14300
H1169       H  0.13271049  0.60569635  0.39934662     0.14100
H1170       H  0.13095255  0.57682044  0.37745375     0.13200
C1171       C  0.09250909  0.73897682  0.43777553     0.19500
C1172       C  0.09264342  0.75913521  0.44213205    -0.09600
C1173       C  0.08140138  0.77226152  0.43091637    -0.10500
C1174       C  0.06993318  0.76533100  0.41525849     0.21100
C1175       C  0.06959649  0.74514510  0.41108171    -0.12500
C1176       C  0.08083038  0.73202928  0.42228822    -0.10800
C1177       C  0.05924201  0.77893784  0.40291588     0.02000
C1178       C  0.05107203  0.79009255  0.39173609    -0.30800
C1179       C  0.10496608  0.72554600  0.44856082     0.03400
C1180       C  0.11601249  0.71424307  0.45670079    -0.32500
H1181       H  0.10166132  0.76473884  0.45399397     0.14500
H1182       H  0.08188700  0.78782956  0.43426169     0.14300
H1183       H  0.06089100  0.73958039  0.39898020     0.14100
H1184       H  0.08063760  0.71652221  0.41868284     0.13200
C1185       C  0.11789266  0.06332010  0.65919211     0.19500
C1186       C  0.10024562  0.06280197  0.64859016    -0.09600
C1187       C  0.08748576  0.07897267  0.64884242    -0.10500
C1188       C  0.09220659  0.09585569  0.65971302     0.21100
C1189       C  0.10984709  0.09637671  0.67034523    -0.12500
C1190       C  0.12261919  0.08019068  0.67009287    -0.10800
C1191       C  0.07891877  0.11252224  0.65996825     0.02000
C1192       C  0.06749628  0.12619042  0.65996516    -0.30800
C1193       C  0.13099513  0.04651513  0.65895200     0.03400
C1194       C  0.14150931  0.03214068  0.65878918    -0.32500
H1195       H  0.09633828  0.04988742  0.64012672     0.14500
H1196       H  0.07392304  0.07829782  0.64056526     0.14300
H1197       H  0.11372218  0.10928031  0.67883952     0.14100
H1198       H  0.13616569  0.08083387  0.67840018     0.13200
C1199       C  0.40946488  0.84549571  0.59025286     0.19500
C1200       C  0.41279476  0.83026945  0.60376076    -0.09600
C1201       C  0.42857416  0.83134952  0.61693455    -0.10500
C1202       C  0.44116804  0.84766972  0.61673663     0.21100
C1203       C  0.43796097  0.86280979  0.60309614    -0.12500
C1204       C  0.42217645  0.86172948  0.58991836    -0.10800
C1205       C  0.45751731  0.84867360  0.63028421     0.02000
C1206       C  0.47153991  0.84880319  0.64120456    -0.30800
C1207       C  0.39281301  0.84468179  0.57705957     0.03400
C1208       C  0.37877842  0.84445902  0.56614844    -0.32500
H1209       H  0.40312237  0.81762933  0.60419911     0.14500
H1210       H  0.43092251  0.81948070  0.62730579     0.14300
H1211       H  0.44762258  0.87546107  0.60267942     0.14100
H1212       H  0.41980970  0.87360889  0.57956258     0.13200
C1213       C  0.41330555  0.84940383  0.40880491     0.19500
C1214       C  0.41904450  0.85867243  0.42630928    -0.09600
C1215       C  0.40599748  0.85989569  0.44219035    -0.10500
C1216       C  0.38709567  0.85187948  0.44068999     0.21100
C1217       C  0.38132170  0.84271677  0.42315223    -0.12500
C1218       C  0.39436639  0.84149331  0.40727480    -0.10800
C1219       C  0.37392180  0.85239196  0.45734461     0.02000
C1220       C  0.36336498  0.85192604  0.47163142    -0.30800
C1221       C  0.42686374  0.84789638  0.39250893     0.03400
C1222       C  0.43835539  0.84672812  0.37899713    -0.32500
H1223       H  0.43363084  0.86484734  0.42771896     0.14500
H1224       H  0.41070216  0.86693519  0.45567950     0.14300
H1225       H  0.36679909  0.83637178  0.42181007     0.14100
H1226       H  0.38972381  0.83428257  0.39385300     0.13200
C1227       C  0.23462133  0.74063079  0.49992932     0.19500
C1228       C  0.23925074  0.75441506  0.48529133    -0.09600
C1229       C  0.25363117  0.76875785  0.48869779    -0.10500
C1230       C  0.26351394  0.76944439  0.50677656     0.21100
C1231       C  0.25895041  0.75560258  0.52137796    -0.12500
C1232       C  0.24456832  0.74125937  0.51797163    -0.10800
C1233       C  0.27802189  0.78454263  0.51047975     0.02000
C1234       C  0.28980377  0.79747084  0.51369626    -0.30800
C1235       C  0.21951946  0.72606164  0.49650892     0.03400
C1236       C  0.20663445  0.71418853  0.49348544    -0.32500
H1237       H  0.23167818  0.75413885  0.47128870     0.14500
H1238       H  0.25695662  0.77937043  0.47728612     0.14300
H1239       H  0.26642721  0.75596932  0.53543549     0.14100
H1240       H  0.24113924  0.73073075  0.52943606     0.13200
C1241       C  0.26242276  0.91200785  0.56634095     0.19500
C1242       C  0.26717342  0.93120600  0.57219202    -0.09600
C1243       C  0.25385802  0.94228203  0.58334082    -0.10500
C1244       C  0.23566817  0.93426820  0.58873912     0.21100
C1245       C  0.23074851  0.91523019  0.58250734    -0.12500
C1246       C  0.24405580  0.90416062  0.57136139    -0.10800
C1247       C  0.22256807  0.94506604  0.60157302     0.02000
C1248       C  0.21198910  0.95329343  0.61327969    -0.30800
C1249       C  0.27670651  0.89996431  0.55618030     0.03400
C1250       C  0.28861771  0.88910575  0.54867016    -0.32500
H1251       H  0.28132680  0.93745886  0.56849778     0.14500
H1252       H  0.25791863  0.95693349  0.58810269     0.14300
H1253       H  0.21680286  0.90878538  0.58661209     0.14100
H1254       H  0.24018486  0.88933567  0.56702263     0.13200
C1255       C  0.35014441  0.90383254  0.91204833     0.19500
C1256       C  0.33439783  0.90902858  0.89985939    -0.09600
C1257       C  0.33573117  0.92557795  0.88764818    -0.10500
C1258       C  0.35281844  0.93708157  0.88750517     0.21100
C1259       C  0.36868829  0.93171636  0.89948374    -0.12500
C1260       C  0.36735610  0.91515204  0.91170072    -0.10800
C1261       C  0.35373305  0.95464693  0.87550568     0.02000
C1262       C  0.35348755  0.96947388  0.86564451    -0.30800
C1263       C  0.34845730  0.88728572  0.92530653     0.03400
C1264       C  0.34735903  0.87381147  0.93687274    -0.32500
H1265       H  0.32100606  0.90044040  0.89997554     0.14500
H1266       H  0.32334054  0.92954454  0.87849311     0.14300
H1267       H  0.38198067  0.94045971  0.89955813     0.14100
H1268       H  0.37964243  0.91132111  0.92105266     0.13200
C1269       C  0.24371508  0.99345613  0.73502635     0.19500
C1270       C  0.23801170  0.00055096  0.75353850    -0.09600
C1271       C  0.25217453  0.00494705  0.76785942    -0.10500
C1272       C  0.27218029  0.00229509  0.76380311     0.21100
C1273       C  0.27786159  0.99512790  0.74532168    -0.12500
C1274       C  0.26371198  0.99073536  0.73101441    -0.10800
C1275       C  0.28689973  0.00693125  0.77847917     0.02000
C1276       C  0.29964780  0.01061549  0.79034317    -0.30800
C1277       C  0.22915750  0.98934571  0.72003415     0.03400
C1278       C  0.21721740  0.98632636  0.70717859    -0.32500
H1279       H  0.22263648  0.00277729  0.75686855     0.14500
H1280       H  0.24752757  0.01046321  0.78205339     0.14300
H1281       H  0.29324670  0.99298866  0.74194533     0.14100
H1282       H  0.26837782  0.98530921  0.71678493     0.13200
C1283       C  0.38690380  0.15182535  0.56684764     0.19500
C1284       C  0.39300280  0.16990664  0.57465944    -0.09600
C1285       C  0.40612538  0.17049022  0.59051551    -0.10500
C1286       C  0.41329871  0.15300338  0.59874283     0.21100
C1287       C  0.40722077  0.13489594  0.59092564    -0.12500
C1288       C  0.39408202  0.13431140  0.57504686    -0.10800
C1289       C  0.42684999  0.15372624  0.61515292     0.02000
C1290       C  0.43823840  0.15458752  0.62880887    -0.30800
C1291       C  0.37365829  0.15134242  0.55019575     0.03400
C1292       C  0.36311273  0.15151814  0.53586347    -0.32500
H1293       H  0.38766208  0.18356867  0.56844880     0.14500
H1294       H  0.41068771  0.18459145  0.59635472     0.14300
H1295       H  0.41263985  0.12124728  0.59708776     0.14100
H1296       H  0.38957967  0.12022398  0.56913440     0.13200
C1297       C  0.59825243  0.15606764  0.59402281     0.19500
C1298       C  0.59660048  0.14078277  0.60778714    -0.09600
C1299       C  0.58020586  0.13969747  0.62018415    -0.10500
C1300       C  0.56534747  0.15389001  0.61889960     0.21100
C1301       C  0.56702352  0.16917173  0.60514503    -0.12500
C1302       C  0.58340265  0.17025722  0.59276185    -0.10800
C1303       C  0.54844491  0.15294507  0.63170449     0.02000
C1304       C  0.53407193  0.15296199  0.64213094    -0.30800
C1305       C  0.61489898  0.15695579  0.58089210     0.03400
C1306       C  0.62845753  0.15741627  0.56943799    -0.32500
H1307       H  0.60793227  0.12967570  0.60887872     0.14500
H1308       H  0.57911624  0.12781107  0.63074384     0.14300
H1309       H  0.55566179  0.18024671  0.60399043     0.14100
H1310       H  0.58444605  0.18210942  0.58215525     0.13200
C1311       C  0.41626007  0.06474867  0.76644611     0.19500
C1312       C  0.41359227  0.06319126  0.74604765    -0.09600
C1313       C  0.42518210  0.07432925  0.73312837    -0.10500
C1314       C  0.43956015  0.08714384  0.74047377     0.21100
C1315       C  0.44252753  0.08836352  0.76085226    -0.12500
C1316       C  0.43093714  0.07722673  0.77377132    -0.10800
C1317       C  0.45030584  0.09994753  0.72724504     0.02000
C1318       C  0.45817363  0.11159000  0.71628315    -0.30800
C1319       C  0.40331867  0.05437027  0.77982325     0.03400
C1320       C  0.39182484  0.04655797  0.79096233    -0.32500
H1321       H  0.40228289  0.05368109  0.74014187     0.14500
H1322       H  0.42262339  0.07328035  0.71744080     0.14300
H1323       H  0.45349556  0.09825958  0.76678009     0.14100
H1324       H  0.43315110  0.07865918  0.78948416     0.13200
C1325       C  0.90963866  0.34479923  0.09476608     0.19500
C1326       C  0.90782075  0.33851831  0.11433897    -0.09600
C1327       C  0.92392941  0.33954964  0.12713225    -0.10500
C1328       C  0.94197934  0.34689360  0.12045858     0.21100
C1329       C  0.94380135  0.35309372  0.10087347    -0.22100
C1330       C  0.92771242  0.35206192  0.08809513    -0.10800
C1331       C  0.95871642  0.34783791  0.13351554     0.02000
C1332       C  0.97319134  0.34825643  0.14381166    -0.30800
C1333       C  0.89300640  0.34397614  0.08155254     0.03400
C1334       C  0.87934432  0.34368725  0.07017945    -0.32500
H1335       H  0.89396005  0.33286469  0.11971295     0.14500
H1336       H  0.92230787  0.33463080  0.14220201     0.14300
H1337       H  0.95766480  0.35873023  0.09547762     0.14100
H1338       H  0.92935928  0.35696371  0.07302001     0.13200
C1339       C  0.91382982  0.34555520  0.90878712     0.19500
C1340       C  0.92058629  0.34101378  0.92772444    -0.09600
C1341       C  0.90779428  0.34185246  0.94382384    -0.10500
C1342       C  0.88812297  0.34725462  0.94115277     0.21100
C1343       C  0.88132550  0.35171580  0.92219983    -0.12500
C1344       C  0.89413343  0.35087719  0.90608087    -0.10800
C1345       C  0.87502734  0.34808513  0.95788167     0.02000
C1346       C  0.86476299  0.34818906  0.97240491    -0.30800
C1347       C  0.92717903  0.34501175  0.89225596     0.03400
C1348       C  0.93863574  0.34483163  0.87866462    -0.32500
H1349       H  0.93575957  0.33689318  0.93005741     0.14500
H1350       H  0.91325564  0.33832484  0.95836577     0.14300
H1351       H  0.86616053  0.35587439  0.91989113     0.14100
H1352       H  0.88870105  0.35444267  0.89153724     0.13200
C1353       C  0.59374583  0.59638392  0.15556407     0.19500
C1354       C  0.60661938  0.59189938  0.17100056    -0.09600
C1355       C  0.61903063  0.57553682  0.16970196    -0.10500
C1356       C  0.61869976  0.56350626  0.15295809     0.21100
C1357       C  0.60583683  0.56799667  0.13749734    -0.12500
C1358       C  0.59341727  0.58437405  0.13879583    -0.10800
C1359       C  0.63127327  0.54639489  0.15193819     0.02000
C1360       C  0.64159739  0.53192047  0.15216170    -0.30800
C1361       C  0.58075546  0.61313645  0.15699339     0.03400
C1362       C  0.56955711  0.62690178  0.15791733    -0.32500
H1363       H  0.60701703  0.60100586  0.18406372     0.14500
H1364       H  0.62883287  0.57221677  0.18179864     0.14300
H1365       H  0.60534980  0.55880899  0.12449693     0.14100
H1366       H  0.58351779  0.58762891  0.12676415     0.13200
C1367       C  0.77213729  0.50625686  0.26285228     0.19500
C1368       C  0.75402661  0.49807219  0.26829063    -0.09600
C1369       C  0.73974430  0.49401467  0.25398049    -0.10500
C1370       C  0.74342877  0.49809379  0.23408320     0.21100
C1371       C  0.76155335  0.50624800  0.22866313    -0.12500
C1372       C  0.77582220  0.51030205  0.24295956    -0.10800
C1373       C  0.72872523  0.49392702  0.21921871     0.02000
C1374       C  0.71678833  0.49055734  0.20642675    -0.30800
C1375       C  0.78698970  0.51035983  0.27756492     0.03400
C1376       C  0.79977013  0.51361951  0.28952382    -0.32500
H1377       H  0.75094936  0.49481543  0.28358250     0.14500
H1378       H  0.72583899  0.48769713  0.25843330     0.14300
H1379       H  0.76466301  0.50947347  0.21337455     0.14100
H1380       H  0.78973538  0.51658046  0.23849049     0.13200
C1381       C  0.76887806  0.41339042  0.06995357     0.19500
C1382       C  0.75059382  0.40549143  0.07515322    -0.09600
C1383       C  0.73710082  0.41672647  0.08586827    -0.10500
C1384       C  0.74172026  0.43600699  0.09151987     0.21100
C1385       C  0.75991322  0.44404040  0.08610834    -0.12500
C1386       C  0.77343995  0.43277745  0.07536593    -0.10800
C1387       C  0.72812508  0.44704697  0.10361737     0.02000
C1388       C  0.71668124  0.45509316  0.11461467    -0.30800
C1389       C  0.78304288  0.40126129  0.05970627     0.03400
C1390       C  0.79432506  0.38997066  0.05185070    -0.32500
H1391       H  0.74686127  0.39052671  0.07114531     0.14500
H1392       H  0.72316111  0.41026271  0.09000155     0.14300
H1393       H  0.76375446  0.45887504  0.09043319     0.14100
H1394       H  0.78751927  0.43908528  0.07152438     0.13200
C1395       C  0.65680310  0.06437068  0.88459857     0.19500
C1396       C  0.67508498  0.07250455  0.88947212    -0.09600
C1397       C  0.67623795  0.08868841  0.90218134    -0.10500
C1398       C  0.65911402  0.09688329  0.91013167     0.21100
C1399       C  0.64082569  0.08885617  0.90511435    -0.12500
C1400       C  0.63967280  0.07267204  0.89240872    -0.10800
C1401       C  0.66027450  0.11319847  0.92374828     0.02000
C1402       C  0.66081840  0.12653431  0.93552279    -0.30800
C1403       C  0.65572275  0.04718613  0.87210603     0.03400
C1404       C  0.65549173  0.03240519  0.86220766    -0.32500
H1405       H  0.68845620  0.06621738  0.88360262     0.14500
H1406       H  0.69047605  0.09469158  0.90593870     0.14300
H1407       H  0.62746601  0.09499958  0.91116498     0.14100
H1408       H  0.62544739  0.06652201  0.88883286     0.13200
C1409       C  0.73625851  0.23987391  0.99943494     0.19500
C1410       C  0.73073152  0.25717387  0.00920030    -0.09600
C1411       C  0.74472331  0.27166481  0.01355079    -0.10500
C1412       C  0.76441980  0.26902991  0.00819459     0.21100
C1413       C  0.76995925  0.25173605  0.99840375    -0.12500
C1414       C  0.75595349  0.23723033  0.99404867    -0.10800
C1415       C  0.77883885  0.28410338  0.01262297     0.02000
C1416       C  0.79066723  0.29695385  0.01616446    -0.30800
C1417       C  0.72168533  0.22497379  0.99495909     0.03400
C1418       C  0.70897822  0.21298976  0.99146404    -0.32500
H1419       H  0.71558625  0.25947043  0.01344990     0.14500
H1420       H  0.74017100  0.28493696  0.02108527     0.14300
H1421       H  0.78509432  0.24946893  0.99412552     0.14100
H1422       H  0.76048326  0.22397576  0.98648167     0.13200
C1423       C  0.59148774  0.40599120  0.85021494     0.19500
C1424       C  0.61107702  0.40394840  0.84426494    -0.09600
C1425       C  0.62378601  0.42016275  0.84466000    -0.10500
C1426       C  0.61703151  0.43856936  0.85102033     0.21100
C1427       C  0.59746152  0.44058827  0.85706985    -0.12500
C1428       C  0.58475193  0.42437329  0.85667528    -0.10800
C1429       C  0.63004253  0.45541620  0.85098969     0.02000
C1430       C  0.64066679  0.46969160  0.85055096    -0.30800
C1431       C  0.57829239  0.38931446  0.84960639     0.03400
C1432       C  0.56701322  0.37556261  0.84923599    -0.32500
H1433       H  0.61650541  0.38984701  0.83924401     0.14500
H1434       H  0.63884892  0.41836795  0.83990940     0.14300
H1435       H  0.59200327  0.45471100  0.86199175     0.14100
H1436       H  0.56966159  0.42619072  0.86132721     0.13200
C1437       C  0.49820789  0.23408088  0.74287491     0.19500
C1438       C  0.48724680  0.25154940  0.74310652    -0.09600
C1439       C  0.49061279  0.26580245  0.75765631    -0.10500
C1440       C  0.50498093  0.26272333  0.77211290     0.21100
C1441       C  0.51594524  0.24528378  0.77185259    -0.12500
C1442       C  0.51258442  0.23105318  0.75732383    -0.10800
C1443       C  0.50848527  0.27728160  0.78727634     0.02000
C1444       C  0.51182375  0.28889577  0.80036154    -0.30800
C1445       C  0.49452327  0.21910457  0.72811941     0.03400
C1446       C  0.49148880  0.20609486  0.71629805    -0.32500
H1447       H  0.47605041  0.25411514  0.73209945     0.14500
H1448       H  0.48199285  0.27917677  0.75765193     0.14300
H1449       H  0.52707957  0.24265950  0.78291982     0.14100
H1450       H  0.52115164  0.21763747  0.75741067     0.13200
C1451       C  0.59134233  0.23694234  0.93889294     0.19500
C1452       C  0.59004354  0.25683159  0.94422748    -0.09600
C1453       C  0.57845241  0.26983826  0.93319203    -0.10500
C1454       C  0.56804905  0.26308329  0.91671572     0.21100
C1455       C  0.56913870  0.24314462  0.91155969    -0.12500
C1456       C  0.58071737  0.23015069  0.92258483    -0.10800
C1457       C  0.55708234  0.27669663  0.90453469     0.02000
C1458       C  0.54884333  0.28796338  0.89346771    -0.30800
C1459       C  0.60423036  0.22369676  0.94949082     0.03400
C1460       C  0.61569982  0.21253649  0.95729471    -0.32500
H1461       H  0.59822834  0.26234888  0.95671728     0.14500
H1462       H  0.57786181  0.28521043  0.93731766     0.14300
H1463       H  0.56128835  0.23769956  0.89882068     0.14100
H1464       H  0.58162908  0.21486402  0.91819852     0.13200
C1465       C  0.62035834  0.15630418  0.43963146     0.19500
C1466       C  0.61013499  0.13920594  0.43434303    -0.09600
C1467       C  0.59729464  0.13937087  0.41825860    -0.10500
C1468       C  0.59455836  0.15664383  0.40732948     0.21100
C1469       C  0.60492691  0.17369499  0.41248152    -0.12500
C1470       C  0.61777201  0.17353003  0.42857473    -0.10800
C1471       C  0.58073653  0.15699747  0.39121930     0.02000
C1472       C  0.56877120  0.15721431  0.37809811    -0.30800
C1473       C  0.63303044  0.15627587  0.45669561     0.03400
C1474       C  0.64305444  0.15622713  0.47138264    -0.32500
H1475       H  0.61194333  0.12580242  0.44277034     0.14500
H1476       H  0.58935354  0.12609468  0.41447582     0.14300
H1477       H  0.60292775  0.18715876  0.40419349     0.14100
H1478       H  0.62553076  0.18687070  0.43250821     0.13200
C1479       C  0.40595753  0.15386404  0.41349667     0.19500
C1480       C  0.40470627  0.16165151  0.39442248    -0.09600
C1481       C  0.42103943  0.16113395  0.38186435    -0.10500
C1482       C  0.43875897  0.15280048  0.38826065     0.21100
C1483       C  0.43992048  0.14484689  0.40725798    -0.12500
C1484       C  0.42361171  0.14536308  0.41979718    -0.10800
C1485       C  0.45585983  0.15272861  0.37558804     0.02000
C1486       C  0.47053916  0.15292920  0.36553614    -0.30800
C1487       C  0.38935603  0.15486029  0.42676670     0.03400
C1488       C  0.37592139  0.15549675  0.43840984    -0.32500
H1489       H  0.39117816  0.16826973  0.38932333     0.14500
H1490       H  0.41989428  0.16736109  0.36724106     0.14300
H1491       H  0.45348944  0.13837500  0.41243960     0.14100
H1492       H  0.42482686  0.13928219  0.43447646     0.13200
C1493       C  0.65905896  0.08863869  0.09746512     0.19500
C1494       C  0.64433349  0.10292207  0.09554887    -0.09600
C1495       C  0.64389559  0.11533417  0.07905922    -0.10500
C1496       C  0.65817135  0.11359012  0.06430249     0.21100
C1497       C  0.67290677  0.09931923  0.06622908    -0.12500
C1498       C  0.67334434  0.08691091  0.08271408    -0.10800
C1499       C  0.65771073  0.12635501  0.04720990     0.02000
C1500       C  0.65768751  0.13682541  0.03277336    -0.30800
C1501       C  0.65947262  0.07572790  0.11445451     0.03400
C1502       C  0.65980435  0.06475289  0.12851158    -0.32500
H1503       H  0.63317660  0.10445343  0.10679031     0.14500
H1504       H  0.63241187  0.12626946  0.07781062     0.14300
H1505       H  0.68404779  0.09776421  0.05497615     0.14100
H1506       H  0.68481187  0.07595825  0.08394244     0.13200
C1507       C  0.65843883  0.93732255  0.12201319     0.19500
C1508       C  0.65275224  0.91844500  0.12808394    -0.09600
C1509       C  0.65434431  0.90247256  0.11514264    -0.10500
C1510       C  0.66165307  0.90525691  0.09605164     0.21100
C1511       C  0.66739335  0.92412100  0.09003157    -0.12500
C1512       C  0.66580032  0.94006925  0.10295133    -0.10800
C1513       C  0.66270419  0.88895546  0.08243643     0.02000
C1514       C  0.66284702  0.87565211  0.07062959    -0.30800
C1515       C  0.65697243  0.95390434  0.13524301     0.03400
C1516       C  0.65661542  0.96844229  0.14548330    -0.32500
H1517       H  0.64707076  0.91608248  0.14277598     0.14500
H1518       H  0.64977876  0.88799314  0.11997871     0.14300
H1519       H  0.67299428  0.92652353  0.07531278     0.14100
H1520       H  0.67028581  0.95455935  0.09806192     0.13200
C1521       C  0.57273933  0.08977101  0.27032477     0.19500
C1522       C  0.56492594  0.07276369  0.26165370    -0.09600
C1523       C  0.57625082  0.06162707  0.24850797    -0.10500
C1524       C  0.59547996  0.06741373  0.24393162     0.21100
C1525       C  0.60331124  0.08433624  0.25272355    -0.12500
C1526       C  0.59200908  0.09545030  0.26584315    -0.10800
C1527       C  0.60718029  0.05629603  0.23006763     0.02000
C1528       C  0.61782691  0.04800583  0.21847722    -0.30800
C1529       C  0.56099749  0.10168153  0.28347360     0.03400
C1530       C  0.55195222  0.11258752  0.29423091    -0.32500
H1531       H  0.55005767  0.06819539  0.26493843     0.14500
H1532       H  0.56997906  0.04860285  0.24183512     0.14300
H1533       H  0.61813380  0.08901462  0.24933743     0.14100
H1534       H  0.59825688  0.10856318  0.27238985     0.13200
C1535       C  0.94196097  0.88710534  0.35098127     0.19500
C1536       C  0.92351136  0.88017659  0.35692685    -0.09600
C1537       C  0.90705272  0.89246926  0.35587406    -0.10500
C1538       C  0.90892749  0.91177291  0.34884724     0.21100
C1539       C  0.92736378  0.91866830  0.34283806    -0.12500
C1540       C  0.94381038  0.90638550  0.34389224    -0.10800
C1541       C  0.89209368  0.92465339  0.34814868     0.02000
C1542       C  0.87839065  0.93592609  0.34790360    -0.30800
C1543       C  0.95893415  0.87441596  0.35188098     0.03400
C1544       C  0.97330927  0.86401083  0.35194288    -0.32500
H1545       H  0.92185484  0.86529468  0.36238007     0.14500
H1546       H  0.89290359  0.88695372  0.36060068     0.14300
H1547       H  0.92903657  0.93355994  0.33741020     0.14100
H1548       H  0.95796234  0.91192282  0.33919122     0.13200
C1549       C  0.91223222  0.09738060  0.35204051     0.19500
C1550       C  0.91947066  0.07916089  0.35842761    -0.09600
C1551       C  0.90701472  0.06279563  0.35958772    -0.10500
C1552       C  0.88717984  0.06448099  0.35439153     0.21100
C1553       C  0.87988496  0.08273876  0.34815686    -0.12500
C1554       C  0.89235371  0.09912103  0.34699618    -0.10800
C1555       C  0.87455110  0.04735299  0.35484008     0.02000
C1556       C  0.86445201  0.03270220  0.35446653    -0.30800
C1557       C  0.92528219  0.11413491  0.35053754     0.03400
C1558       C  0.93675275  0.12770846  0.34953283    -0.32500
H1559       H  0.93478233  0.07757075  0.36238453     0.14500
H1560       H  0.91289542  0.04878850  0.36436901     0.14300
H1561       H  0.86461238  0.08426866  0.34402857     0.14100
H1562       H  0.88652840  0.11309100  0.34204201     0.13200
C1563       C  0.73811708  0.00323769  0.24174940     0.19500
C1564       C  0.75274602  0.01722195  0.24562948    -0.09600
C1565       C  0.76705110  0.01354005  0.25997703    -0.10500
C1566       C  0.76685064  0.99583389  0.27056365     0.21100
C1567       C  0.75239797  0.98173069  0.26648096    -0.12500
C1568       C  0.73809619  0.98541285  0.25214057    -0.10800
C1569       C  0.78103943  0.99234905  0.28599430     0.02000
C1570       C  0.79239447  0.98936828  0.29934045    -0.30800
C1571       C  0.72280085  0.00742776  0.22761180     0.03400
C1572       C  0.70961007  0.01105816  0.21625695    -0.32500
H1573       H  0.75294197  0.03107300  0.23774727     0.14500
H1574       H  0.77810716  0.02459264  0.26298066     0.14300
H1575       H  0.75203549  0.96799674  0.27455183     0.14100
H1576       H  0.72688279  0.97447262  0.24934006     0.13200
C1577       C  0.56618156  0.84694412  0.38917356     0.19500
C1578       C  0.58322088  0.83686089  0.38355726    -0.09600
C1579       C  0.59925431  0.83567269  0.39640035    -0.10500
C1580       C  0.59837910  0.84453330  0.41498885     0.21100
C1581       C  0.58138036  0.85470779  0.42058108    -0.12500
C1582       C  0.56534279  0.85589527  0.40773507    -0.10800
C1583       C  0.61485130  0.84317764  0.42831981     0.02000
C1584       C  0.62847348  0.84245990  0.43969465    -0.30800
C1585       C  0.54943363  0.84766139  0.37611246     0.03400
C1586       C  0.53515547  0.84760219  0.36552896    -0.32500
H1587       H  0.58406978  0.82982159  0.36929301     0.14500
H1588       H  0.61229130  0.82777791  0.39186779     0.14300
H1589       H  0.58049315  0.86164409  0.43489119     0.14100
H1590       H  0.55226413  0.86368880  0.41231594     0.13200
C1591       C  0.59405620  0.84729474  0.60027261     0.19500
C1592       C  0.61350941  0.84078856  0.60199766    -0.09600
C1593       C  0.62614027  0.84146159  0.58571495    -0.10500
C1594       C  0.61943008  0.84866594  0.56758026     0.21100
C1595       C  0.60004549  0.85534615  0.56593401    -0.12500
C1596       C  0.58743364  0.85467419  0.58219265    -0.10800
C1597       C  0.63217976  0.84876442  0.55054208     0.02000
C1598       C  0.64235232  0.84839919  0.53594676    -0.30800
C1599       C  0.58075263  0.84617273  0.61684705     0.03400
C1600       C  0.56904105  0.84543936  0.63022195    -0.32500
H1601       H  0.61885793  0.83505058  0.61586186     0.14500
H1602       H  0.64106693  0.83621320  0.58722204     0.14300
H1603       H  0.59462412  0.86092121  0.55203161     0.14100
H1604       H  0.57245805  0.85976071  0.58061550     0.13200
C1605       C  0.76509500  0.93500565  0.41471774     0.19500
C1606       C  0.74520534  0.93387110  0.40953005    -0.09600
C1607       C  0.73217600  0.92253773  0.42079283    -0.10500
C1608       C  0.73891608  0.91223176  0.43734966     0.21100
C1609       C  0.75874077  0.91360695  0.44268843    -0.12500
C1610       C  0.77176358  0.92493294  0.43143086    -0.10800
C1611       C  0.72576492  0.89953969  0.44828225     0.02000
C1612       C  0.71501130  0.88811543  0.45670437    -0.30800
C1613       C  0.77878698  0.94573110  0.40244245     0.03400
C1614       C  0.79033621  0.95381929  0.39158114    -0.32500
H1615       H  0.73983313  0.94148884  0.39661575     0.14500
H1616       H  0.71693116  0.92156162  0.41640971     0.14300
H1617       H  0.76420052  0.90566553  0.45537823     0.14100
H1618       H  0.78709808  0.92558490  0.43558801     0.13200
C1619       C  0.34720930  0.06102150  0.11857816     0.19500
C1620       C  0.34137794  0.07945094  0.12576954    -0.09600
C1621       C  0.34068056  0.09579711  0.11318490    -0.10500
C1622       C  0.34578638  0.09385247  0.09329201     0.21100
C1623       C  0.35149948  0.07540286  0.08609305    -0.12500
C1624       C  0.35219692  0.05907575  0.09866365    -0.10800
C1625       C  0.34536528  0.11072002  0.08027988     0.02000
C1626       C  0.34537947  0.12453005  0.06902538    -0.30800
C1627       C  0.34801118  0.04409555  0.13151224     0.03400
C1628       C  0.34842351  0.02959969  0.14187250    -0.32500
H1629       H  0.33742349  0.08119506  0.14110062     0.14500
H1630       H  0.33622544  0.10994422  0.11897637     0.14300
H1631       H  0.35547839  0.07364812  0.07076740     0.14100
H1632       H  0.35667674  0.04494064  0.09285935     0.13200
C1633       C  0.34793995  0.11628959  0.94050631     0.19500
C1634       C  0.35375494  0.12323915  0.92196621    -0.09600
C1635       C  0.35290227  0.11085251  0.90549585    -0.10500
C1636       C  0.34621087  0.09143088  0.90744732     0.21100
C1637       C  0.34036222  0.08452762  0.92597154    -0.12500
C1638       C  0.34121705  0.09689099  0.94241280    -0.10800
C1639       C  0.34569088  0.07839538  0.89065004     0.02000
C1640       C  0.34557872  0.06681488  0.87714803    -0.30800
C1641       C  0.34873065  0.12897015  0.95757656     0.03400
C1642       C  0.34891158  0.13909220  0.97221386    -0.32500
H1643       H  0.35896548  0.13819789  0.92025226     0.14500
H1644       H  0.35752335  0.11638592  0.89128537     0.14300
H1645       H  0.33521118  0.06955208  0.92772322     0.14100
H1646       H  0.33665592  0.09130916  0.95662429     0.13200
C1647       C  0.38788136  0.43764655  0.15851974     0.19500
C1648       C  0.38041656  0.41929465  0.16433269    -0.09600
C1649       C  0.39270533  0.40274345  0.16501344    -0.10500
C1650       C  0.41258571  0.40439358  0.15990154     0.21100
C1651       C  0.42001528  0.42272801  0.15405856    -0.12500
C1652       C  0.40774555  0.43925234  0.15337797    -0.10800
C1653       C  0.42542998  0.38741661  0.16057246     0.02000
C1654       C  0.43682734  0.37374662  0.16071162    -0.30800
C1655       C  0.37533360  0.45487494  0.15811061     0.03400
C1656       C  0.36528157  0.46958497  0.15813266    -0.32500
H1657       H  0.36512327  0.41779187  0.16839385     0.14500
H1658       H  0.38671590  0.38869556  0.16955107     0.14300
H1659       H  0.43532341  0.42426346  0.15005314     0.14100
H1660       H  0.41377476  0.45330429  0.14889551     0.13200
C1661       C  0.59819736  0.41069208  0.15973094     0.19500
C1662       C  0.57984561  0.41737468  0.15320612    -0.09600
C1663       C  0.56371052  0.40455998  0.15258964    -0.10500
C1664       C  0.56570164  0.38487799  0.15847252     0.21100
C1665       C  0.58403919  0.37819665  0.16508630    -0.12500
C1666       C  0.60019493  0.39102704  0.16570264    -0.10800
C1667       C  0.54890889  0.37169795  0.15782070     0.02000
C1668       C  0.53449326  0.36119786  0.15748404    -0.30800
C1669       C  0.61489463  0.42398594  0.16012799     0.03400
C1670       C  0.62858351  0.43541362  0.16010768    -0.32500
H1671       H  0.57800959  0.43249792  0.14854557     0.14500
H1672       H  0.54967148  0.41000959  0.14749127     0.14300
H1673       H  0.58586030  0.36306868  0.16974027     0.14100
H1674       H  0.61424352  0.38559644  0.17079297     0.13200
C1675       C  0.49573165  0.25983336  0.23588168     0.19500
C1676       C  0.48242004  0.24460431  0.23985840    -0.09600
C1677       C  0.48668857  0.23054104  0.25431999    -0.10500
C1678       C  0.50430427  0.23157856  0.26492940     0.21100
C1679       C  0.51749458  0.24695055  0.26113416    -0.12500
C1680       C  0.51322553  0.26101260  0.24667663    -0.10800
C1681       C  0.50901400  0.21664398  0.27933711     0.02000
C1682       C  0.51283253  0.20380653  0.29105621    -0.30800
C1683       C  0.49173519  0.27391726  0.22041929     0.03400
C1684       C  0.48885528  0.28553054  0.20722888    -0.32500
H1685       H  0.46885100  0.24347773  0.23164002     0.14500
H1686       H  0.47635247  0.21874734  0.25708013     0.14300
H1687       H  0.53116060  0.24795099  0.26919610     0.14100
H1688       H  0.52366311  0.27267456  0.24377059     0.13200
C1689       C  0.43891847  0.26366141  0.08872405     0.19500
C1690       C  0.44474077  0.24393477  0.08708397    -0.09600
C1691       C  0.43373322  0.23069485  0.07571456    -0.10500
C1692       C  0.41679106  0.23705201  0.06586674     0.21100
C1693       C  0.41122922  0.25686542  0.06716034    -0.12500
C1694       C  0.42222201  0.27008934  0.07852164    -0.10800
C1695       C  0.40439451  0.22312474  0.05554163     0.02000
C1696       C  0.39291819  0.21175072  0.04805013    -0.30800
C1697       C  0.44937442  0.27702893  0.10165046     0.03400
C1698       C  0.45716463  0.28810351  0.11325064    -0.32500
H1699       H  0.45754303  0.23869232  0.09491864     0.14500
H1700       H  0.43818722  0.21542996  0.07497032     0.14300
H1701       H  0.39813104  0.26200525  0.05974080     0.14100
H1702       H  0.41745979  0.28524452  0.07967705     0.13200
C1703       C  0.09898617  0.34551090  0.91348545     0.19500
C1704       C  0.10098837  0.33936001  0.89389497    -0.09600
C1705       C  0.08498819  0.34039169  0.88095224    -0.10500
C1706       C  0.06684068  0.34760646  0.88747262     0.21100
C1707       C  0.06486235  0.35377779  0.90705255    -0.12500
C1708       C  0.08084704  0.35274534  0.91998368    -0.10800
C1709       C  0.05014384  0.34830822  0.87429312     0.02000
C1710       C  0.03570817  0.34843872  0.86389708    -0.30800
C1711       C  0.11547758  0.34451115  0.92690063     0.03400
C1712       C  0.12905705  0.34406814  0.93838808    -0.32500
H1713       H  0.11489722  0.33374642  0.88863446     0.14500
H1714       H  0.08675292  0.33550411  0.86589528     0.14300
H1715       H  0.05093673  0.35932742  0.91234692     0.14100
H1716       H  0.07904950  0.35756787  0.93506011     0.13200
C1717       C  0.09524521  0.34622041  0.10000511     0.19500
C1718       C  0.09135870  0.35888702  0.08419594    -0.09600
C1719       C  0.10408506  0.35960398  0.06802626    -0.10500
C1720       C  0.12084187  0.34767082  0.06749262     0.21100
C1721       C  0.12481967  0.33508628  0.08336048    -0.12500
C1722       C  0.11207876  0.33437003  0.09955108    -0.10800
C1723       C  0.13356083  0.34798308  0.05043477     0.02000
C1724       C  0.14356732  0.34794848  0.03572004    -0.30800
C1725       C  0.08188828  0.34536551  0.11655045     0.03400
C1726       C  0.07039069  0.34505456  0.13012550    -0.32500
H1727       H  0.07842801  0.36813970  0.08431953     0.14500
H1728       H  0.10077370  0.36935971  0.05587044     0.14300
H1729       H  0.13767515  0.32573046  0.08315202     0.14100
H1730       H  0.11529558  0.32451137  0.11164866     0.13200
C1731       C  0.24257927  0.26902359  0.00277358     0.19500
C1732       C  0.24505794  0.25281231  0.99028759    -0.09600
C1733       C  0.25903972  0.23835677  0.99467803    -0.10500
C1734       C  0.27068804  0.23995480  0.01160348     0.21100
C1735       C  0.26805938  0.25605252  0.02422837    -0.12500
C1736       C  0.25406517  0.27051937  0.01983505    -0.10800
C1737       C  0.28570212  0.22543048  0.01562097     0.02000
C1738       C  0.29863811  0.21354726  0.01840106    -0.30800
C1739       C  0.22855990  0.28425586  0.99787260     0.03400
C1740       C  0.21707281  0.29719279  0.99373767    -0.32500
H1741       H  0.23631300  0.25144076  0.97705400     0.14500
H1742       H  0.26091286  0.22603957  0.98475429     0.14300
H1743       H  0.27696286  0.25753168  0.03734013     0.14100
H1744       H  0.25233894  0.28295392  0.02963355     0.13200
C1745       C  0.43875679  0.38372953  0.85214716     0.19500
C1746       C  0.42396555  0.38071491  0.83812131    -0.09600
C1747       C  0.40780282  0.39342591  0.83724123    -0.10500
C1748       C  0.40631774  0.40925797  0.85036682     0.21100
C1749       C  0.42101194  0.41214138  0.86450565    -0.12500
C1750       C  0.43715858  0.39944251  0.86538533    -0.10800
C1751       C  0.39000965  0.42279629  0.84910973     0.02000
C1752       C  0.37672475  0.43455160  0.84822229    -0.30800
C1753       C  0.45583243  0.37112327  0.85261460     0.03400
C1754       C  0.47051331  0.36113561  0.85264923    -0.32500
H1755       H  0.42502046  0.36866793  0.82775715     0.14500
H1756       H  0.39657703  0.39102216  0.82622104     0.14300
H1757       H  0.42008161  0.42431757  0.87472983     0.14100
H1758       H  0.44848842  0.40199176  0.87626509     0.13200
C1759       C  0.41028635  0.59736834  0.84743409     0.19500
C1760       C  0.39893510  0.59403876  0.86431667    -0.09600
C1761       C  0.38611259  0.57794067  0.86515139    -0.10500
C1762       C  0.38457275  0.56508746  0.84910552     0.21100
C1763       C  0.39566162  0.56865293  0.83210982    -0.12500
C1764       C  0.40846620  0.58472507  0.83127698    -0.10800
C1765       C  0.37218729  0.54787769  0.85019061     0.02000
C1766       C  0.36251673  0.53297150  0.85036099    -0.30800
C1767       C  0.42429854  0.61327742  0.84689700     0.03400
C1768       C  0.43646700  0.62619083  0.84652547    -0.32500
H1769       H  0.40021695  0.60369421  0.87691946     0.14500
H1770       H  0.37763992  0.57535621  0.87838233     0.14300
H1771       H  0.39462457  0.55883463  0.81960700     0.14100
H1772       H  0.41716191  0.58711835  0.81815139     0.13200
C1773       C  0.23907817  0.41432845  0.93769770     0.19500
C1774       C  0.25944446  0.41194131  0.93939025    -0.09600
C1775       C  0.27221031  0.42320035  0.92777843    -0.10500
C1776       C  0.26474259  0.43695890  0.91435645     0.21100
C1777       C  0.24439147  0.43964130  0.91294274    -0.12500
C1778       C  0.23161910  0.42837824  0.92456311    -0.10800
C1779       C  0.27791003  0.44750754  0.90138752     0.02000
C1780       C  0.28914540  0.45528224  0.88999113    -0.30800
C1781       C  0.22588522  0.40160445  0.94854327     0.03400
C1782       C  0.21495891  0.39010987  0.95664310    -0.32500
H1783       H  0.26544656  0.40109580  0.94938842     0.14500
H1784       H  0.28788516  0.42089689  0.92899114     0.14300
H1785       H  0.23838485  0.45015391  0.90258986     0.14100
H1786       H  0.21592244  0.43033979  0.92300944     0.13200
C1787       C  0.84964994  0.56212554  0.61825603     0.19500
C1788       C  0.85263853  0.55973171  0.59800149    -0.09600
C1789       C  0.85197933  0.57601032  0.58539503    -0.10500
C1790       C  0.84831051  0.59484104  0.59291835     0.21100
C1791       C  0.84529420  0.59725755  0.61318107    -0.12500
C1792       C  0.84595243  0.58095594  0.62580503    -0.10800
C1793       C  0.84778271  0.61160108  0.57982580     0.02000
C1794       C  0.84763345  0.62534226  0.56851833    -0.30800
C1795       C  0.85013164  0.54520646  0.63114163     0.03400
C1796       C  0.85014296  0.53066418  0.64139694    -0.32500
H1797       H  0.85545759  0.54527053  0.59194788     0.14500
H1798       H  0.85434242  0.57391233  0.56977839     0.14300
H1799       H  0.84244854  0.61171887  0.61921117     0.14100
H1800       H  0.84356215  0.58302911  0.64141626     0.13200
C1801       C  0.85160023  0.61607437  0.44139392     0.19500
C1802       C  0.83330988  0.60999252  0.43415848    -0.09600
C1803       C  0.83219632  0.59698175  0.41822426    -0.10500
C1804       C  0.84936602  0.58990738  0.40936726     0.21100
C1805       C  0.86767546  0.59600423  0.41657519    -0.12500
C1806       C  0.86879029  0.60902691  0.43252683    -0.10800
C1807       C  0.84818955  0.57633995  0.39300829     0.02000
C1808       C  0.84744462  0.56490765  0.37938590    -0.30800
C1809       C  0.85260459  0.62920617  0.45811554     0.03400
C1810       C  0.85258959  0.63969209  0.47249776    -0.32500
H1811       H  0.81989939  0.61525308  0.44088657     0.14500
H1812       H  0.81794820  0.59239993  0.41285103     0.14300
H1813       H  0.88107942  0.59064999  0.40990450     0.14100
H1814       H  0.88303285  0.61353278  0.43798076     0.13200
C1815       C  0.74240246  0.76772022  0.50142283     0.19500
C1816       C  0.74697497  0.76273729  0.52091768    -0.09600
C1817       C  0.76128319  0.74847147  0.52491175    -0.10500
C1818       C  0.77113930  0.73906437  0.50944591     0.21100
C1819       C  0.76644097  0.74393465  0.48996469    -0.12500
C1820       C  0.75214440  0.75818847  0.48597397    -0.10800
C1821       C  0.78635169  0.72478049  0.51349944     0.02000
C1822       C  0.79945980  0.71317410  0.51656478    -0.30800
C1823       C  0.72810110  0.78289134  0.49724493     0.03400
C1824       C  0.71651872  0.79589887  0.49365691    -0.32500
H1825       H  0.73960833  0.76999150  0.53301957     0.14500
H1826       H  0.76476903  0.74490191  0.54004108     0.14300
H1827       H  0.77394595  0.73682958  0.47785615     0.14100
H1828       H  0.74880878  0.76189512  0.47084079     0.13200
C1829       C  0.88422358  0.93735754  0.65325124     0.19500
C1830       C  0.89686180  0.93347760  0.63745794    -0.09600
C1831       C  0.91005784  0.91771955  0.63844330    -0.10500
C1832       C  0.91072338  0.90575146  0.65523715     0.21100
C1833       C  0.89801617  0.90958857  0.67097885    -0.12500
C1834       C  0.88482760  0.92533473  0.66999374    -0.10800
C1835       C  0.92460049  0.88974243  0.65644823     0.02000
C1836       C  0.93637858  0.87649794  0.65751509    -0.30800
C1837       C  0.87113788  0.95403298  0.65262586     0.03400
C1838       C  0.86081219  0.96846300  0.65290706    -0.32500
H1839       H  0.89662334  0.94271155  0.62447108     0.14500
H1840       H  0.91981850  0.91495006  0.62618165     0.14300
H1841       H  0.89839377  0.90048982  0.68406035     0.14100
H1842       H  0.87521461  0.92822856  0.68234685     0.13200
C1843       C  0.06505754  0.88548991  0.65449764     0.19500
C1844       C  0.08424886  0.87814128  0.65343577    -0.09600
C1845       C  0.10030077  0.89098340  0.65469703    -0.10500
C1846       C  0.09726581  0.91124585  0.65705443     0.21100
C1847       C  0.07808143  0.91858496  0.65794590    -0.12500
C1848       C  0.06205580  0.90576454  0.65668046    -0.10800
C1849       C  0.11374932  0.92453301  0.65853891     0.02000
C1850       C  0.12732400  0.93594240  0.65949032    -0.30800
C1851       C  0.04840200  0.87232649  0.65402916     0.03400
C1852       C  0.03387953  0.86211071  0.65455739    -0.32500
H1853       H  0.08679823  0.86250398  0.65180483     0.14500
H1854       H  0.11505284  0.88511211  0.65394290     0.14300
H1855       H  0.07551157  0.93420315  0.65972152     0.14100
H1856       H  0.04731513  0.91164787  0.65757663     0.13200
C1857       C  0.91587673  0.73737404  0.57032470     0.19500
C1858       C  0.92378757  0.73126902  0.58835527    -0.09600
C1859       C  0.93475946  0.74435932  0.59983943    -0.10500
C1860       C  0.93793375  0.76369247  0.59341289     0.21100
C1861       C  0.93017692  0.76978134  0.57529720    -0.12500
C1862       C  0.91918718  0.75667059  0.56379572    -0.10800
C1863       C  0.94842055  0.77740020  0.60581900     0.02000
C1864       C  0.95630805  0.78873750  0.61701466    -0.30800
C1865       C  0.90368968  0.72406682  0.55906420     0.03400
C1866       C  0.89266644  0.71285736  0.55074462    -0.32500
H1867       H  0.92126157  0.71645914  0.59365957     0.14500
H1868       H  0.94055473  0.73947309  0.61384570     0.14300
H1869       H  0.93240945  0.78471440  0.57018890     0.14100
H1870       H  0.91306863  0.76164802  0.54995386     0.13200
C1871       C  0.15229984  0.61645311  0.56654629     0.19500
C1872       C  0.15267470  0.59598667  0.56407567    -0.09600
C1873       C  0.15432856  0.58356009  0.58043078    -0.10500
C1874       C  0.15564751  0.59147059  0.59942316     0.21100
C1875       C  0.15510654  0.61193754  0.60193239    -0.12500
C1876       C  0.15345432  0.62438016  0.58555595    -0.10800
C1877       C  0.15743346  0.57853013  0.61622959     0.02000
C1878       C  0.15845902  0.56713231  0.62986617    -0.30800
C1879       C  0.15152421  0.62922704  0.54952877     0.03400
C1880       C  0.15192583  0.63947641  0.53497204    -0.32500
H1881       H  0.15187199  0.58963628  0.54948820     0.14500
H1882       H  0.15467405  0.56778265  0.57825530     0.14300
H1883       H  0.15605860  0.61827157  0.61651578     0.14100
H1884       H  0.15325868  0.64016350  0.58770241     0.13200
C1885       C  0.15510790  0.43761432  0.62009846     0.19500
C1886       C  0.17326561  0.42926155  0.61519498    -0.09600
C1887       C  0.17417669  0.41303197  0.60254778    -0.10500
C1888       C  0.15693412  0.40500618  0.59468361     0.21100
C1889       C  0.13875621  0.41326855  0.59967178    -0.12500
C1890       C  0.13784496  0.42951103  0.61232672    -0.10800
C1891       C  0.15792288  0.38856660  0.58125033     0.02000
C1892       C  0.15865679  0.37506439  0.56970928    -0.30800
C1893       C  0.15431958  0.45471525  0.63273221     0.03400
C1894       C  0.15441204  0.46931670  0.64290560    -0.32500
H1895       H  0.18673232  0.43538287  0.62104286     0.14500
H1896       H  0.18832691  0.40683143  0.59880288     0.14300
H1897       H  0.12530971  0.40724334  0.59367896     0.14100
H1898       H  0.12371044  0.43582360  0.61593671     0.13200
C1899       C  0.23551490  0.50673747  0.74264924     0.19500
C1900       C  0.24829593  0.49090229  0.73947489    -0.09600
C1901       C  0.26294132  0.48649542  0.75324423    -0.10500
C1902       C  0.26491862  0.49789271  0.77030004     0.21100
C1903       C  0.25223619  0.51382046  0.77340827    -0.12500
C1904       C  0.23759106  0.51822513  0.75964140    -0.10800
C1905       C  0.27959187  0.49302426  0.78484100     0.02000
C1906       C  0.29129556  0.48921382  0.79764176    -0.30800
C1907       C  0.22007438  0.51092825  0.72868322     0.03400
C1908       C  0.20693775  0.51404396  0.71713511    -0.32500
H1909       H  0.24684609  0.48187698  0.72643093     0.14500
H1910       H  0.27260508  0.47412172  0.75066850     0.14300
H1911       H  0.25356666  0.52273050  0.78654490     0.14100
H1912       H  0.22780817  0.53048384  0.76231506     0.13200
C1913       C  0.12192328  0.65606938  0.93899378     0.19500
C1914       C  0.11859753  0.67412706  0.92957482    -0.09600
C1915       C  0.10550502  0.67530718  0.91371174    -0.10500
C1916       C  0.09563292  0.65843666  0.90715157     0.21100
C1917       C  0.09899937  0.64039299  0.91655321    -0.12500
C1918       C  0.11207817  0.63921400  0.93239803    -0.10800
C1919       C  0.08199161  0.65954613  0.89089050     0.02000
C1920       C  0.07035135  0.65981264  0.87745768    -0.30800
C1921       C  0.13493135  0.65492583  0.95576333     0.03400
C1922       C  0.14512954  0.65423959  0.97031068    -0.32500
H1923       H  0.12602652  0.68730089  0.93456536     0.14500
H1924       H  0.10303844  0.68935950  0.90661806     0.14300
H1925       H  0.09146259  0.62723953  0.91167273     0.14100
H1926       H  0.11441935  0.62518400  0.93957824     0.13200
C1927       C  0.94243859  0.65295822  0.89011459     0.19500
C1928       C  0.94455887  0.64901130  0.91025872    -0.09600
C1929       C  0.92818025  0.64936898  0.92274169    -0.10500
C1930       C  0.90951215  0.65369836  0.91521288     0.21100
C1931       C  0.90737320  0.65752200  0.89505253    -0.12500
C1932       C  0.92375118  0.65716454  0.88257032    -0.10800
C1933       C  0.89265417  0.65449407  0.92817787     0.02000
C1934       C  0.87866660  0.65529231  0.93914186    -0.30800
C1935       C  0.95943811  0.65302452  0.87730009     0.03400
C1936       C  0.97380607  0.65352448  0.86681334    -0.32500
H1937       H  0.95888663  0.64576608  0.91633671     0.14500
H1938       H  0.93009678  0.64639193  0.93827559     0.14300
H1939       H  0.89306450  0.66090208  0.88899980     0.14100
H1940       H  0.92185461  0.66027652  0.86705860     0.13200
C1941       C  0.99433394  0.76477883  0.73909800     0.19500
C1942       C  0.97918552  0.75480519  0.74890839    -0.09600
C1943       C  0.98359921  0.74060153  0.76322346    -0.10500
C1944       C  0.00319163  0.73625427  0.76784014     0.21100
C1945       C  0.01829753  0.74635082  0.75814051    -0.12500
C1946       C  0.01389199  0.76052895  0.74385326    -0.10800
C1947       C  0.00786634  0.72106692  0.78202675     0.02000
C1948       C  0.01200665  0.70792468  0.79331114    -0.30800
C1949       C  0.98998965  0.77899031  0.72382776     0.03400
C1950       C  0.98719651  0.79053933  0.71055174    -0.32500
H1951       H  0.96399565  0.75787395  0.74537430     0.14500
H1952       H  0.97175606  0.73288454  0.77053925     0.14300
H1953       H  0.03349966  0.74312636  0.76148369     0.14100
H1954       H  0.02575887  0.76805918  0.73637982     0.13200
C1955       C  0.08917812  0.56624229  0.73920868     0.19500
C1956       C  0.07810720  0.58201656  0.73187561    -0.09600
C1957       C  0.06705085  0.59380065  0.74467881    -0.10500
C1958       C  0.06694470  0.58993609  0.76495818     0.21100
C1959       C  0.07760700  0.57384251  0.77220473    -0.12500
C1960       C  0.08866399  0.56206456  0.75940655    -0.10800
C1961       C  0.05684783  0.60304491  0.77842512     0.02000
C1962       C  0.04937586  0.61450169  0.78986336    -0.30800
C1963       C  0.10200542  0.55522573  0.72625802     0.03400
C1964       C  0.11362683  0.54711552  0.71549164    -0.32500
H1965       H  0.07839597  0.58550202  0.71632753     0.14500
H1966       H  0.05895144  0.60619197  0.73881832     0.14300
H1967       H  0.07774078  0.57066596  0.78781606     0.14100
H1968       H  0.09718004  0.54999614  0.76533529     0.13200
loop_ 
_geom_bond_atom_site_label_1 
_geom_bond_atom_site_label_2 
_geom_bond_distance 
_geom_bond_site_symmetry_2 
_ccdc_geom_bond_type 
O1            C4   1.265       .  A
O1           Cd6   2.497       .  S
C2           O11   1.264       .  A
C2            O7   1.265       .  A
C2         C1920   1.442       .  S
O3            C9   1.267       .  A
O3           Cd6   2.502   1_655  S
C4           O12   1.263       .  A
C4         C1948   1.444       .  S
C5           O10   1.265       .  A
C5            O8   1.263       .  A
C5         C1962   1.449       .  S
Cd6          O13   2.478       .  S
Cd6          O12   2.481       .  S
Cd6          O11   2.477       .  S
Cd6           O7   2.493       .  S
Cd6          O10   2.516       .  S
Cd6           O8   2.491       .  S
C9           O13   1.263   1_655  A
C9         C1936   1.446       .  S
O14          C17   1.265       .  A
O14         Cd19   2.493       .  S
C15          O24   1.263       .  A
C15          O20   1.265       .  A
C15        C1878   1.442       .  S
O16          C22   1.265       .  A
O16         Cd19   2.504       .  S
C17          O25   1.263       .  A
C17        C1908   1.442       .  S
C18          O23   1.266       .  A
C18          O21   1.264       .  A
C18        C1964   1.445       .  S
Cd19         O26   2.480       .  S
Cd19         O25   2.481       .  S
Cd19         O24   2.471       .  S
Cd19         O20   2.497       .  S
Cd19         O23   2.503       .  S
Cd19         O21   2.472       .  S
C22          O26   1.262       .  A
C22        C1894   1.443       .  S
O27          C30   1.265       .  A
O27         Cd32   2.499       .  S
C28          O37   1.263       .  A
C28          O33   1.265       .  A
C28        C1836   1.441       .  S
O29          C35   1.265       .  A
O29         Cd32   2.498   1_455  S
C30          O38   1.264       .  A
C30        C1950   1.445       .  S
C31          O36   1.266       .  A
C31          O34   1.263       .  A
C31        C1864   1.441       .  S
Cd32         O39   2.475   1_655  S
Cd32         O38   2.483       .  S
Cd32         O37   2.478       .  S
Cd32         O33   2.489       .  S
Cd32         O36   2.495       .  S
Cd32         O34   2.465       .  S
C35          O39   1.263       .  A
C35        C1852   1.442       .  S
O40          C43   1.264       .  A
O40         Cd45   2.494       .  S
C41          O50   1.264       .  A
C41          O46   1.265       .  A
C41        C1794   1.442       .  S
O42          C48   1.266       .  A
O42         Cd45   2.501       .  S
C43          O51   1.263       .  A
C43        C1822   1.443       .  S
C44          O49   1.266       .  A
C44          O47   1.262       .  A
C44        C1866   1.443       .  S
Cd45         O52   2.470       .  S
Cd45         O51   2.483       .  S
Cd45         O50   2.478       .  S
Cd45         O46   2.486       .  S
Cd45         O49   2.510       .  S
Cd45         O47   2.470       .  S
C48          O52   1.263       .  A
C48        C1810   1.443       .  S
O53          C56   1.265       .  A
O53         Cd58   2.490       .  S
C54          O63   1.263       .  A
C54          O59   1.266       .  A
C54        C1906   1.440       .  S
O55          C61   1.266       .  A
O55         Cd58   2.497       .  S
C56          O64   1.264       .  A
C56        C1752   1.442       .  S
C57          O62   1.265       .  A
C57          O60   1.263       .  A
C57        C1766   1.440       .  S
Cd58         O65   2.470       .  S
Cd58         O64   2.476       .  S
Cd58         O63   2.463       .  S
Cd58         O59   2.491       .  S
Cd58         O62   2.494       .  S
Cd58         O60   2.470       .  S
C61          O65   1.263       .  A
C61        C1780   1.443       .  S
O66          C69   1.265       .  A
O66         Cd71   2.500       .  S
C67          O76   1.264       .  A
C67          O72   1.266       .  A
C67        C1712   1.445       .  S
O68          C74   1.266       .  A
O68         Cd71   2.499   1_554  S
C69          O77   1.263       .  A
C69        C1740   1.444       .  S
C70          O75   1.266       .  A
C70          O73   1.263       .  A
C70        C1782   1.445       .  S
Cd71         O78   2.475   1_556  S
Cd71         O77   2.479       .  S
Cd71         O76   2.479       .  S
Cd71         O72   2.498       .  S
Cd71         O75   2.506       .  S
Cd71         O73   2.476       .  S
C74          O78   1.263       .  A
C74        C1724   1.444       .  S
O79          C82   1.264       .  A
O79         Cd84   2.493       .  S
C80          O89   1.264       .  A
C80          O85   1.265       .  A
C80        C1654   1.445       .  S
O81          C87   1.266       .  A
O81         Cd84   2.518       .  S
C82          O90   1.264       .  A
C82        C1684   1.444       .  S
C83          O88   1.266       .  A
C83          O86   1.263       .  A
C83        C1698   1.448       .  S
Cd84         O91   2.491       .  S
Cd84         O90   2.487       .  S
Cd84         O89   2.482       .  S
Cd84         O85   2.497       .  S
Cd84         O88   2.517       .  S
Cd84         O86   2.481       .  S
C87          O91   1.263       .  A
C87        C1668   1.450       .  S
O92          C95   1.265       .  A
O92         Cd97   2.496       .  S
C93         O102   1.264       .  A
C93          O98   1.265       .  A
C93        C1738   1.445       .  S
O94         C100   1.265       .  A
O94         Cd97   2.512       .  S
C95         O103   1.263       .  A
C95        C1626   1.444       .  S
C96         O101   1.265       .  A
C96          O99   1.263       .  A
C96        C1642   1.443       .  S
Cd97        O104   2.477       .  S
Cd97        O103   2.483       .  S
Cd97        O102   2.484       .  S
Cd97         O98   2.496       .  S
Cd97        O101   2.497   1_554  S
Cd97         O99   2.480   1_554  S
C100        O104   1.263       .  A
C100       C1696   1.446       .  S
O105        C108   1.266       .  A
O105       Cd110   2.491       .  S
C106        O115   1.262       .  A
C106        O111   1.266       .  A
C106       C1584   1.441       .  S
O107        C113   1.266       .  A
O107       Cd110   2.500       .  S
C108        O116   1.264       .  A
C108       C1824   1.444       .  S
C109        O114   1.266       .  A
C109        O112   1.263       .  A
C109       C1612   1.445       .  S
Cd110       O117   2.476       .  S
Cd110       O116   2.478       .  S
Cd110       O115   2.466       .  S
Cd110       O111   2.496       .  S
Cd110       O114   2.506       .  S
Cd110       O112   2.473       .  S
C113        O117   1.263       .  A
C113       C1598   1.444       .  S
O118        C121   1.265       .  A
O118       Cd123   2.487       .  S
C119        O128   1.264       .  A
C119        O124   1.265       .  A
C119       C1542   1.440       .  S
O120        C126   1.266       .  A
O120       Cd123   2.501   1_545  S
C121        O129   1.264       .  A
C121       C1570   1.442       .  S
C122        O127   1.266       .  A
C122        O125   1.263       .  A
C122       C1614   1.444       .  S
Cd123       O130   2.473   1_565  S
Cd123       O129   2.479       .  S
Cd123       O128   2.473       .  S
Cd123       O124   2.486       .  S
Cd123       O127   2.504       .  S
Cd123       O125   2.473       .  S
C126        O130   1.263       .  A
C126       C1556   1.444       .  S
O131        C134   1.266       .  A
O131       Cd136   2.495       .  S
C132        O141   1.264       .  A
C132        O137   1.266       .  A
C132       C1502   1.447       .  S
O133        C139   1.267       .  A
O133       Cd136   2.499   1_565  S
C134        O142   1.264       .  A
C134       C1572   1.444       .  S
C135        O140   1.266       .  A
C135        O138   1.263       .  A
C135       C1528   1.444       .  S
Cd136       O143   2.462   1_545  S
Cd136       O142   2.479       .  S
Cd136       O141   2.488       .  S
Cd136       O137   2.500       .  S
Cd136       O140   2.507       .  S
Cd136       O138   2.472       .  S
C139        O143   1.263       .  A
C139       C1516   1.442       .  S
O144        C147   1.265       .  A
O144       Cd149   2.488       .  S
C145        O154   1.264       .  A
C145        O150   1.266       .  A
C145       C1472   1.440       .  S
O146        C152   1.266       .  A
O146       Cd149   2.505       .  S
C147        O155   1.264       .  A
C147       C1682   1.442       .  S
C148        O153   1.267       .  A
C148        O151   1.263       .  A
C148       C1530   1.444       .  S
Cd149       O156   2.479       .  S
Cd149       O155   2.477       .  S
Cd149       O154   2.469       .  S
Cd149       O150   2.482       .  S
Cd149       O153   2.506       .  S
Cd149       O151   2.463       .  S
C152        O156   1.263       .  A
C152       C1486   1.446       .  S
O157        C160   1.266       .  A
O157       Cd162   2.493       .  S
C158        O167   1.264       .  A
C158        O163   1.265       .  A
C158       C1444   1.445       .  S
O159        C165   1.266       .  A
O159       Cd162   2.512       .  S
C160        O168   1.264       .  A
C160       C1432   1.443       .  S
C161        O166   1.267       .  A
C161        O164   1.264       .  A
C161       C1754   1.442       .  S
Cd162       O169   2.474       .  S
Cd162       O168   2.476       .  S
Cd162       O167   2.481       .  S
Cd162       O163   2.494       .  S
Cd162       O166   2.493       .  S
Cd162       O164   2.467       .  S
C165        O169   1.262       .  A
C165       C1458   1.445       .  S
O170        C173   1.265       .  A
O170       Cd175   2.502       .  S
C171        O180   1.264       .  A
C171        O176   1.266       .  A
C171       C1402   1.443       .  S
O172        C178   1.266       .  A
O172       Cd175   2.504   1_554  S
C173        O181   1.264       .  A
C173       C1418   1.446       .  S
C174        O179   1.266       .  A
C174        O177   1.263       .  A
C174       C1460   1.446       .  S
Cd175       O182   2.479   1_556  S
Cd175       O181   2.487       .  S
Cd175       O180   2.479       .  S
Cd175       O176   2.494       .  S
Cd175       O179   2.513       .  S
Cd175       O177   2.477       .  S
C178        O182   1.263       .  A
C178       C1500   1.446       .  S
O183        C186   1.265       .  A
O183       Cd188   2.503       .  S
C184        O193   1.264       .  A
C184        O189   1.265       .  A
C184       C1670   1.449       .  S
O185        C191   1.266       .  A
O185       Cd188   2.504       .  S
C186        O194   1.264       .  A
C186       C1374   1.447       .  S
C187        O192   1.266       .  A
C187        O190   1.263       .  A
C187       C1388   1.445       .  S
Cd188       O195   2.472       .  S
Cd188       O194   2.494       .  S
Cd188       O193   2.493       .  S
Cd188       O189   2.505       .  S
Cd188       O192   2.509       .  S
Cd188       O190   2.475       .  S
C191        O195   1.263       .  A
C191       C1360   1.443       .  S
O196        C199   1.265       .  A
O196       Cd201   2.504       .  S
C197        O206   1.263       .  A
C197        O202   1.265       .  A
C197       C1334   1.444       .  S
O198        C204   1.265       .  A
O198       Cd201   2.506   1_556  S
C199        O207   1.264       .  A
C199       C1416   1.447       .  S
C200        O205   1.266       .  A
C200        O203   1.264       .  A
C200       C1390   1.445       .  S
Cd201       O208   2.472       .  S
Cd201       O207   2.488       .  S
Cd201       O206   2.480       .  S
Cd201       O202   2.496       .  S
Cd201       O205   2.502       .  S
Cd201       O203   2.472       .  S
C204        O208   1.262   1_556  A
C204       C1346   1.443       .  S
O209        C212   1.266       .  A
O209       Cd214   2.509       .  S
C210        O219   1.263       .  A
C210        O215   1.266       .  A
C210       C1290   1.445       .  S
O211        C217   1.266       .  A
O211       Cd214   2.494       .  S
C212        O220   1.264       .  A
C212       C1446   1.448       .  S
C213        O218   1.266       .  A
C213        O216   1.263       .  A
C213       C1318   1.445       .  S
Cd214       O221   2.470       .  S
Cd214       O220   2.492       .  S
Cd214       O219   2.482       .  S
Cd214       O215   2.503       .  S
Cd214       O218   2.507       .  S
Cd214       O216   2.477       .  S
C217        O221   1.263       .  A
C217       C1304   1.441       .  S
O222        C225   1.265       .  A
O222       Cd227   2.493       .  S
C223        O232   1.264       .  A
C223        O228   1.265       .  A
C223       C1276   1.446       .  S
O224        C230   1.266       .  A
O224       Cd227   2.505       .  S
C225        O233   1.263       .  A
C225       C1640   1.442       .  S
C226        O231   1.265       .  A
C226        O229   1.263       .  A
C226       C1262   1.444       .  S
Cd227       O234   2.477       .  S
Cd227       O233   2.475       .  S
Cd227       O232   2.486       .  S
Cd227       O228   2.499       .  S
Cd227       O231   2.503   1_545  S
Cd227       O229   2.479   1_545  S
C230        O234   1.263       .  A
C230       C1320   1.445       .  S
O235        C238   1.265       .  A
O235       Cd240   2.493       .  S
C236        O245   1.263       .  A
C236        O241   1.265       .  A
C236       C1208   1.444       .  S
O237        C243   1.266       .  A
O237       Cd240   2.494       .  S
C238        O246   1.263       .  A
C238       C1234   1.443       .  S
C239        O244   1.265       .  A
C239        O242   1.263       .  A
C239       C1250   1.444       .  S
Cd240       O247   2.464       .  S
Cd240       O246   2.480       .  S
Cd240       O245   2.479       .  S
Cd240       O241   2.497       .  S
Cd240       O244   2.502       .  S
Cd240       O242   2.477       .  S
C243        O247   1.263       .  A
C243       C1220   1.441       .  S
O248        C251   1.266       .  A
O248       Cd253   2.497       .  S
C249        O258   1.263       .  A
C249        O254   1.266       .  A
C249       C1850   1.440       .  S
O250        C256   1.266       .  A
O250       Cd253   2.503   1_545  S
C251        O259   1.264       .  A
C251       C1278   1.446       .  S
C252        O257   1.267       .  A
C252        O255   1.263       .  A
C252       C1248   1.445       .  S
Cd253       O260   2.481   1_565  S
Cd253       O259   2.483       .  S
Cd253       O258   2.467       .  S
Cd253       O254   2.489       .  S
Cd253       O257   2.509       .  S
Cd253       O255   2.472       .  S
C256        O260   1.263       .  A
C256       C1194   1.447       .  S
O261        C264   1.265       .  A
O261       Cd266   2.489       .  S
C262        O271   1.264       .  A
C262        O267   1.265       .  A
C262       C1164   1.444       .  S
O263        C269   1.265       .  A
O263       Cd266   2.503       .  S
C264        O272   1.264       .  A
C264       C1236   1.443       .  S
C265        O270   1.265       .  A
C265        O268   1.263       .  A
C265       C1180   1.443       .  S
Cd266       O273   2.473       .  S
Cd266       O272   2.483       .  S
Cd266       O271   2.479       .  S
Cd266       O267   2.497       .  S
Cd266       O270   2.501       .  S
Cd266       O268   2.471       .  S
C269        O273   1.263       .  A
C269       C1880   1.443       .  S
O274        C277   1.266       .  A
O274       Cd279   2.483       .  S
C275        O284   1.264       .  A
C275        O280   1.265       .  A
C275       C1150   1.441       .  S
O276        C282   1.266       .  A
O276       Cd279   2.495       .  S
C277        O285   1.263       .  A
C277       C1136   1.439       .  S
C278        O283   1.266       .  A
C278        O281   1.262   1_655  A
C278       C1544   1.441       .  S
Cd279       O286   2.463       .  S
Cd279       O285   2.461       .  S
Cd279       O284   2.478       .  S
Cd279       O280   2.484       .  S
Cd279       O283   2.497   1_455  S
Cd279       O281   2.466       .  S
C282        O286   1.263       .  A
C282       C1178   1.442       .  S
O287        C290   1.266       .  A
O287       Cd292   2.496       .  S
C288        O297   1.264       .  A
C288        O293   1.266       .  A
C288       C1376   1.446       .  S
O289        C295   1.266       .  A
O289       Cd292   2.504       .  S
C290        O298   1.264       .  A
C290       C1808   1.443       .  S
C291        O296   1.266       .  A
C291        O294   1.263       .  A
C291       C1108   1.444       .  S
Cd292       O299   2.471       .  S
Cd292       O298   2.475       .  S
Cd292       O297   2.481       .  S
Cd292       O293   2.501       .  S
Cd292       O296   2.503       .  S
Cd292       O294   2.474       .  S
C295        O299   1.263       .  A
C295       C1124   1.444       .  S
O300        C303   1.266       .  A
O300       Cd305   2.488       .  S
C301        O310   1.263       .  A
C301        O306   1.266       .  A
C301       C1082   1.443       .  S
O302        C308   1.266       .  A
O302       Cd305   2.502   1_455  S
C303        O311   1.264       .  A
C303       C1152   1.442       .  S
C304        O309   1.267       .  A
C304        O307   1.264       .  A
C304       C1122   1.444       .  S
Cd305       O312   2.471   1_655  S
Cd305       O311   2.474       .  S
Cd305       O310   2.473       .  S
Cd305       O306   2.493       .  S
Cd305       O309   2.501       .  S
Cd305       O307   2.469       .  S
C308        O312   1.263       .  A
C308       C1096   1.443       .  S
O313        C316   1.265       .  A
O313       Cd318   2.487       .  S
C314        O323   1.264       .  A
C314        O319   1.264       .  A
C314       C1052   1.440       .  S
O315        C321   1.265       .  A
O315       Cd318   2.496       .  S
C316        O324   1.263       .  A
C316       C1038   1.440       .  S
C317        O322   1.265       .  A
C317        O320   1.263       .  A
C317       C1404   1.442       .  S
Cd318       O325   2.470       .  S
Cd318       O324   2.471       .  S
Cd318       O323   2.474       .  S
Cd318       O319   2.485       .  S
Cd318       O322   2.500   1_565  S
Cd318       O320   2.469   1_565  S
C321        O325   1.263       .  A
C321       C1066   1.442       .  S
O326        C329   1.266       .  A
O326       Cd331   2.498       .  S
C327        O336   1.264       .  A
C327        O332   1.265       .  A
C327       C1024   1.444       .  S
O328        C334   1.266       .  A
O328       Cd331   2.497       .  S
C329        O337   1.263       .  A
C329       C1600   1.444       .  S
C330        O335   1.266       .  A
C330        O333   1.262       .  A
C330       C1206   1.443       .  S
Cd331       O338   2.463       .  S
Cd331       O337   2.479       .  S
Cd331       O336   2.483       .  S
Cd331       O332   2.494       .  S
Cd331       O335   2.504       .  S
Cd331       O333   2.469       .  S
C334        O338   1.263       .  A
C334       C1068   1.441       .  S
O339        C342   1.265       .  A
O339       Cd344   2.493       .  S
C340        O349   1.264       .  A
C340        O345   1.265       .  A
C340        C996   1.445       .  S
O341        C347   1.265       .  A
O341       Cd344   2.488   1_565  S
C342        O350   1.263       .  A
C342       C1054   1.441       .  S
C343        O348   1.265       .  A
C343        O346   1.263       .  A
C343       C1010   1.440       .  S
Cd344       O351   2.462   1_545  S
Cd344       O350   2.470       .  S
Cd344       O349   2.485       .  S
Cd344       O345   2.493       .  S
Cd344       O348   2.490       .  S
Cd344       O346   2.469       .  S
C347        O351   1.263       .  A
C347       C1838   1.439       .  S
O352        C355   1.265       .  A
O352       Cd357   2.489       .  S
C353        O362   1.264       .  A
C353        O358   1.265       .  A
C353        C984   1.443       .  S
O354        C360   1.266       .  A
O354       Cd357   2.500       .  S
C355        O363   1.263       .  A
C355       C1306   1.441       .  S
C356        O361   1.265       .  A
C356        O359   1.263       .  A
C356       C1474   1.443       .  S
Cd357       O364   2.463       .  S
Cd357       O363   2.474       .  S
Cd357       O362   2.480       .  S
Cd357       O358   2.490       .  S
Cd357       O361   2.497       .  S
Cd357       O359   2.480       .  S
C360        O364   1.263       .  A
C360       C1012   1.441       .  S
O365        C368   1.265       .  A
O365       Cd370   2.484       .  S
C366        O375   1.264       .  A
C366        O371   1.265       .  A
C366       C1768   1.438       .  S
O367        C373   1.266       .  A
O367       Cd370   2.497       .  S
C368        O376   1.264       .  A
C368       C1026   1.442       .  S
C369        O374   1.266       .  A
C369        O372   1.262       .  A
C369        C968   1.440       .  S
Cd370       O377   2.465       .  S
Cd370       O376   2.477       .  S
Cd370       O375   2.468       .  S
Cd370       O371   2.477       .  S
Cd370       O374   2.497       .  S
Cd370       O372   2.457       .  S
C373        O377   1.263       .  A
C373        C954   1.441       .  S
O378        C381   1.265       .  A
O378       Cd383   2.489       .  S
C379        O388   1.263       .  A
C379        O384   1.266       .  A
C379       C1264   1.441       .  S
O380        C386   1.266       .  A
O380       Cd383   2.495   1_554  S
C381        O389   1.263       .  A
C381        C942   1.441       .  S
C382        O387   1.266       .  A
C382        O385   1.263       .  A
C382        C970   1.439       .  S
Cd383       O390   2.471   1_556  S
Cd383       O389   2.472       .  S
Cd383       O388   2.466       .  S
Cd383       O384   2.492       .  S
Cd383       O387   2.491       .  S
Cd383       O385   2.460       .  S
C386        O390   1.264       .  A
C386        C928   1.442       .  S
O391        C394   1.265       .  A
O391       Cd396   2.491       .  S
C392        O401   1.263       .  A
C392        O397   1.265       .  A
C392        C884   1.439       .  S
O393        C399   1.266       .  A
O393       Cd396   2.510       .  S
C394        O402   1.264       .  A
C394        C898   1.442       .  S
C395        O400   1.266       .  A
C395        O398   1.263       .  A
C395        C914   1.446       .  S
Cd396       O403   2.484       .  S
Cd396       O402   2.474       .  S
Cd396       O401   2.469       .  S
Cd396       O397   2.485       .  S
Cd396       O400   2.507       .  S
Cd396       O398   2.480       .  S
C399        O403   1.263       .  A
C399       C1656   1.447       .  S
O404        C407   1.265       .  A
O404       Cd409   2.487       .  S
C405        O414   1.264       .  A
C405        O410   1.265       .  A
C405       C1094   1.442       .  S
O406        C412   1.266       .  A
O406       Cd409   2.498   1_556  S
C407        O415   1.264       .  A
C407        C940   1.441       .  S
C408        O413   1.266       .  A
C408        O411   1.263       .  A
C408        C912   1.443       .  S
Cd409       O416   2.469   1_554  S
Cd409       O415   2.470       .  S
Cd409       O414   2.475       .  S
Cd409       O410   2.486       .  S
Cd409       O413   2.504       .  S
Cd409       O411   2.465       .  S
C412        O416   1.263       .  A
C412       C1922   1.442       .  S
O417        C420   1.266       .  A
O417       Cd422   2.500       .  S
C418        O427   1.263       .  A
C418        O423   1.266       .  A
C418        C982   1.445       .  S
O419        C425   1.265       .  A
O419       Cd422   2.493       .  S
C420        O428   1.263       .  A
C420       C1110   1.443       .  S
C421        O426   1.265       .  A
C421        O424   1.264       .  A
C421        C856   1.439       .  S
Cd422       O429   2.464       .  S
Cd422       O428   2.470       .  S
Cd422       O427   2.483       .  S
Cd422       O423   2.502       .  S
Cd422       O426   2.485       .  S
Cd422       O424   2.467       .  S
C425        O429   1.263       .  A
C425        C872   1.440       .  S
O430        C433   1.265       .  A
O430       Cd435   2.500       .  S
C431        O440   1.264       .  A
C431        O436   1.265       .  A
C431        C842   1.445       .  S
O432        C438   1.266       .  A
O432       Cd435   2.504       .  S
C433        O441   1.263       .  A
C433       C1558   1.444       .  S
C434        O439   1.266       .  A
C434        O437   1.263       .  A
C434        C830   1.447       .  S
Cd435       O442   2.475       .  S
Cd435       O441   2.480       .  S
Cd435       O440   2.485       .  S
Cd435       O436   2.500       .  S
Cd435       O439   2.510   1_655  S
Cd435       O437   2.479   1_655  S
C438        O442   1.263       .  A
C438        C870   1.443       .  S
O443        C446   1.265       .  A
O443       Cd448   2.494       .  S
C444        O453   1.264       .  A
C444        O449   1.265       .  A
C444        C900   1.443       .  S
O445        C451   1.265       .  A
O445       Cd448   2.499       .  S
C446        O454   1.263       .  A
C446        C802   1.442       .  S
C447        O452   1.265       .  A
C447        O450   1.263       .  A
C447       C1166   1.445       .  S
Cd448       O455   2.479       .  S
Cd448       O454   2.476       .  S
Cd448       O453   2.479       .  S
Cd448       O449   2.495       .  S
Cd448       O452   2.504       .  S
Cd448       O450   2.480       .  S
C451        O455   1.264       .  A
C451        C814   1.444       .  S
O456        C459   1.265       .  A
O456       Cd461   2.490       .  S
C457        O466   1.264       .  A
C457        O462   1.265       .  A
C457       C1726   1.444       .  S
O458        C464   1.266       .  A
O458       Cd461   2.500   1_655  S
C459        O467   1.264       .  A
C459        C844   1.444       .  S
C460        O465   1.266       .  A
C460        O463   1.263       .  A
C460        C816   1.445       .  S
Cd461       O468   2.469       .  S
Cd461       O467   2.480       .  S
Cd461       O466   2.482       .  S
Cd461       O462   2.497       .  S
Cd461       O465   2.505       .  S
Cd461       O463   2.477       .  S
C464        O468   1.263   1_655  A
C464       C1332   1.443       .  S
O469        C472   1.266       .  A
O469       Cd474   2.502       .  S
C470        O479   1.264       .  A
C470        O475   1.266       .  A
C470       C1934   1.445       .  S
O471        C477   1.267       .  A
O471       Cd474   2.501   1_554  S
C472        O480   1.264       .  A
C472        C772   1.445       .  S
C473        O478   1.267       .  A
C473        O476   1.263       .  A
C473        C786   1.448       .  S
Cd474       O481   2.475   1_556  S
Cd474       O480   2.477       .  S
Cd474       O479   2.479       .  S
Cd474       O475   2.496       .  S
Cd474       O478   2.512       .  S
Cd474       O476   2.480       .  S
C477        O481   1.263       .  A
C477       C1080   1.444       .  S
O482        C485   1.266       .  A
O482       Cd487   2.493       .  S
C483        O492   1.263       .  A
C483        O488   1.265       .  A
C483        C758   1.444       .  S
O484        C490   1.266       .  A
O484       Cd487   2.506       .  S
C485        O493   1.263       .  A
C485        C956   1.441       .  S
C486        O491   1.265       .  A
C486        O489   1.263       .  A
C486       C1430   1.444       .  S
Cd487       O494   2.474       .  S
Cd487       O493   2.469       .  S
Cd487       O492   2.484       .  S
Cd487       O488   2.499       .  S
Cd487       O491   2.499       .  S
Cd487       O489   2.481       .  S
C490        O494   1.263       .  A
C490        C788   1.446       .  S
O495        C498   1.265       .  A
O495       Cd500   2.495       .  S
C496        O505   1.264       .  A
C496        O501   1.265       .  A
C496        C774   1.443       .  S
O497        C503   1.266       .  A
O497       Cd500   2.506       .  S
C498        O506   1.263       .  A
C498       C1514   1.442       .  S
C499        O504   1.266       .  A
C499        O502   1.263   1_556  A
C499       C1040   1.442       .  S
Cd500       O507   2.468       .  S
Cd500       O506   2.474       .  S
Cd500       O505   2.479       .  S
Cd500       O501   2.484       .  S
Cd500       O504   2.499   1_554  S
Cd500       O502   2.468       .  S
C503        O507   1.263       .  A
C503        C744   1.444       .  S
O508        C511   1.265       .  A
O508       Cd513   2.495       .  S
C509        O518   1.263       .  A
C509        O514   1.265       .  A
C509       C1362   1.442       .  S
O510        C516   1.266       .  A
O510       Cd513   2.497       .  S
C511        O519   1.264       .  A
C511        C730   1.445       .  S
C512        O517   1.266       .  A
C512        O515   1.263       .  A
C512        C746   1.443       .  S
Cd513       O520   2.470       .  S
Cd513       O519   2.482       .  S
Cd513       O518   2.476       .  S
Cd513       O514   2.493       .  S
Cd513       O517   2.505       .  S
Cd513       O515   2.465       .  S
C516        O520   1.263       .  A
C516        C886   1.441       .  S
O521        C524   1.266       .  A
O521       Cd526   2.493       .  S
C522        O531   1.264       .  A
C522        O527   1.265       .  A
C522        C732   1.446       .  S
O523        C529   1.267       .  A
O523       Cd526   2.506       .  S
C524        O532   1.263       .  A
C524       C1222   1.443       .  S
C525        O530   1.266       .  A
C525        O528   1.262       .  A
C525       C1586   1.443       .  S
Cd526       O533   2.465       .  S
Cd526       O532   2.477       .  S
Cd526       O531   2.483       .  S
Cd526       O527   2.504       .  S
Cd526       O530   2.504       .  S
Cd526       O528   2.474       .  S
C529        O533   1.264       .  A
C529        C716   1.444       .  S
O534        C537   1.265       .  A
O534       Cd539   2.496       .  S
C535        O544   1.264       .  A
C535        O540   1.266       .  A
C535        C926   1.442       .  S
O536        C542   1.267       .  A
O536       Cd539   2.508   1_545  S
C537        O545   1.264       .  A
C537        C702   1.444       .  S
C538        O543   1.267       .  A
C538        O541   1.263       .  A
C538        C718   1.446       .  S
Cd539       O546   2.474   1_565  S
Cd539       O545   2.481       .  S
Cd539       O544   2.474       .  S
Cd539       O540   2.488       .  S
Cd539       O543   2.513       .  S
Cd539       O541   2.475       .  S
C542        O546   1.262       .  A
C542       C1628   1.445       .  S
O547        C550   1.266       .  A
O547       Cd552   2.499       .  S
C548        O557   1.263       .  A
C548        O553   1.266       .  A
C548        C676   1.443       .  S
O549        C555   1.266       .  A
O549       Cd552   2.505       .  S
C550        O558   1.263       .  A
C550       C1488   1.445       .  S
C551        O556   1.266       .  A
C551        O554   1.264       .  A
C551       C1292   1.444       .  S
Cd552       O559   2.471       .  S
Cd552       O558   2.477       .  S
Cd552       O557   2.479       .  S
Cd552       O553   2.494       .  S
Cd552       O556   2.497       .  S
Cd552       O554   2.473       .  S
C555        O559   1.263       .  A
C555        C690   1.444       .  S
O560        C563   1.265       .  A
O560       Cd565   2.503       .  S
C561        O570   1.264       .  A
C561        O566   1.266       .  A
C561        C704   1.444       .  S
O562        C568   1.265       .  A
O562       Cd565   2.501       .  S
C563        O571   1.263       .  A
C563        C828   1.447       .  S
C564        O569   1.265       .  A
C564        O567   1.262       .  A
C564       C1138   1.441       .  S
Cd565       O572   2.479       .  S
Cd565       O571   2.488       .  S
Cd565       O570   2.475       .  S
Cd565       O566   2.502       .  S
Cd565       O569   2.500   1_545  S
Cd565       O567   2.467   1_545  S
C568        O572   1.264       .  A
C568        C688   1.445       .  S
O573        C576   1.266       .  A
O573       Cd578   2.490       .  S
C574        O583   1.263       .  A
C574        O579   1.265       .  A
C574        C858   1.440       .  S
O575        C581   1.266       .  A
O575       Cd578   2.493       .  S
C576        O584   1.264       .  A
C576        C760   1.442       .  S
C577        O582   1.266       .  A
C577        O580   1.263       .  A
C577        C662   1.442       .  S
Cd578       O585   2.470       .  S
Cd578       O584   2.471       .  S
Cd578       O583   2.470       .  S
Cd578       O579   2.492       .  S
Cd578       O582   2.499       .  S
Cd578       O580   2.466       .  S
C581        O585   1.263       .  A
C581       C1796   1.442       .  S
O586        C589   1.265       .  A
O586       Cd591   2.491       .  S
C587        O596   1.263       .  A
C587        O592   1.265       .  A
C587       C1348   1.442       .  S
O588        C594   1.266       .  A
O588       Cd591   2.505   1_455  S
C589        O597   1.264       .  A
C589        C646   1.444       .  S
C590        O595   1.266       .  A
C590        O593   1.262       .  A
C590        C660   1.444       .  S
Cd591       O598   2.475   1_655  S
Cd591       O597   2.483       .  S
Cd591       O596   2.479       .  S
Cd591       O592   2.491       .  S
Cd591       O595   2.507       .  S
Cd591       O593   2.471       .  S
C594        O598   1.263       .  A
C594       C1710   1.445       .  S
O599        C602   1.265       .  A
O599       Cd604   2.502       .  S
C600        O609   1.264       .  A
C600        O605   1.266       .  A
C600       C1192   1.447       .  S
O601        C607   1.266       .  A
O601       Cd604   2.508   1_655  S
C602        O610   1.263       .  A
C602        C648   1.445       .  S
C603        O608   1.266       .  A
C603        O606   1.263       .  A
C603        C634   1.446       .  S
Cd604       O611   2.481   1_455  S
Cd604       O610   2.483       .  S
Cd604       O609   2.491       .  S
Cd604       O605   2.502       .  S
Cd604       O608   2.512       .  S
Cd604       O606   2.479       .  S
C607        O611   1.263       .  A
C607        C998   1.446       .  S
O612        C615   1.264       .  A
O612       Cd617   2.496       .  S
C613        O622   1.264       .  A
C613        O618   1.265       .  A
C613       C1892   1.441       .  S
O614        C620   1.265       .  A
O614       Cd617   2.502       .  S
C615        O623   1.263       .  A
C615        C674   1.443       .  S
C616        O621   1.266       .  A
C616        O619   1.264       .  A
C616        C632   1.445       .  S
Cd617       O624   2.475       .  S
Cd617       O623   2.481       .  S
Cd617       O622   2.473       .  S
Cd617       O618   2.484       .  S
Cd617       O621   2.501       .  S
Cd617       O619   2.475       .  S
C620        O624   1.262       .  A
C620        C800   1.442       .  S
C625        C633   1.450       .  S
C625        C626   1.404       .  A
C625        C630   1.402       .  A
C626        C627   1.405       .  A
C626        H635   1.084       .  S
C627        C628   1.404       .  A
C627        H636   1.084       .  S
C628        C631   1.449       .  S
C628        C629   1.402       .  A
C629        C630   1.401       .  A
C629        H637   1.083       .  S
C630        H638   1.083       .  S
C631        C632   1.212       .  T
C633        C634   1.212       .  T
C639        C647   1.450       .  S
C639        C640   1.403       .  A
C639        C644   1.403   1_455  A
C640        C641   1.403       .  A
C640        H649   1.083       .  S
C641        C642   1.403   1_455  A
C641        H650   1.083       .  S
C642        C645   1.449       .  S
C642        C643   1.403       .  A
C643        C644   1.403       .  A
C643        H651   1.084       .  S
C644        H652   1.084       .  S
C645        C646   1.211       .  T
C647        C648   1.212       .  T
C653        C661   1.447       .  S
C653        C654   1.403       .  A
C653        C658   1.402       .  A
C654        C655   1.402       .  A
C654        H663   1.083       .  S
C655        C656   1.403       .  A
C655        H664   1.083       .  S
C656        C659   1.448       .  S
C656        C657   1.403       .  A
C657        C658   1.402       .  A
C657        H665   1.083       .  S
C658        H666   1.084       .  S
C659        C660   1.211       .  T
C661        C662   1.210       .  T
C667        C675   1.447       .  S
C667        C668   1.403       .  A
C667        C672   1.403       .  A
C668        C669   1.402       .  A
C668        H677   1.084       .  S
C669        C670   1.403       .  A
C669        H678   1.084       .  S
C670        C673   1.447       .  S
C670        C671   1.403       .  A
C671        C672   1.402       .  A
C671        H679   1.083       .  S
C672        H680   1.083       .  S
C673        C674   1.210       .  T
C675        C676   1.211       .  T
C681        C689   1.449       .  S
C681        C682   1.403       .  A
C681        C686   1.402       .  A
C682        C683   1.403       .  A
C682        H691   1.084       .  S
C683        C684   1.403       .  A
C683        H692   1.084       .  S
C684        C687   1.449       .  S
C684        C685   1.403       .  A
C685        C686   1.402       .  A
C685        H693   1.083       .  S
C686        H694   1.083       .  S
C687        C688   1.212       .  T
C689        C690   1.211       .  T
C695        C703   1.449       .  S
C695        C696   1.404       .  A
C695        C700   1.402   1_545  A
C696        C697   1.405   1_545  A
C696        H705   1.083       .  S
C697        C698   1.404       .  A
C697        H706   1.083       .  S
C698        C701   1.449       .  S
C698        C699   1.401       .  A
C699        C700   1.400       .  A
C699        H707   1.084       .  S
C700        H708   1.084       .  S
C701        C702   1.211       .  T
C703        C704   1.211       .  T
C709        C717   1.451       .  S
C709        C710   1.404       .  A
C709        C714   1.403       .  A
C710        C711   1.405       .  A
C710        H719   1.084       .  S
C711        C712   1.404       .  A
C711        H720   1.084       .  S
C712        C715   1.449       .  S
C712        C713   1.402       .  A
C713        C714   1.401       .  A
C713        H721   1.083       .  S
C714        H722   1.083       .  S
C715        C716   1.212       .  T
C717        C718   1.212       .  T
C723        C731   1.450       .  S
C723        C724   1.403       .  A
C723        C728   1.404       .  A
C724        C725   1.402       .  A
C724        H733   1.084       .  S
C725        C726   1.402       .  A
C725        H734   1.084       .  S
C726        C729   1.450       .  S
C726        C727   1.404       .  A
C727        C728   1.404       .  A
C727        H735   1.083       .  S
C728        H736   1.083       .  S
C729        C730   1.212       .  T
C731        C732   1.212       .  T
C737        C745   1.448       .  S
C737        C738   1.402       .  A
C737        C742   1.404       .  A
C738        C739   1.400       .  A
C738        H747   1.083       .  S
C739        C740   1.402       .  A
C739        H748   1.083       .  S
C740        C743   1.448       .  S
C740        C741   1.404       .  A
C741        C742   1.404       .  A
C741        H749   1.084       .  S
C742        H750   1.084       .  S
C743        C744   1.211       .  T
C745        C746   1.211       .  T
C751        C759   1.447       .  S
C751        C752   1.403       .  A
C751        C756   1.402       .  A
C752        C753   1.403       .  A
C752        H761   1.083       .  S
C753        C754   1.403       .  A
C753        H762   1.084       .  S
C754        C757   1.449       .  S
C754        C755   1.403       .  A
C755        C756   1.402       .  A
C755        H763   1.084       .  S
C756        H764   1.084       .  S
C757        C758   1.211       .  T
C759        C760   1.210       .  T
C765        C773   1.448       .  S
C765        C766   1.402   1_554  A
C765        C770   1.403       .  A
C766        C767   1.402       .  A
C766        H775   1.084       .  S
C767        C768   1.403       .  A
C767        H776   1.084       .  S
C768        C771   1.449       .  S
C768        C769   1.403   1_556  A
C769        C770   1.403       .  A
C769        H777   1.083       .  S
C770        H778   1.083       .  S
C771        C772   1.212       .  T
C773        C774   1.211       .  T
C779        C787   1.450       .  S
C779        C780   1.404       .  A
C779        C784   1.403       .  A
C780        C781   1.404       .  A
C780        H789   1.084       .  S
C781        C782   1.404       .  A
C781        H790   1.084       .  S
C782        C785   1.452       .  S
C782        C783   1.403       .  A
C783        C784   1.403       .  A
C783        H791   1.083       .  S
C784        H792   1.083       .  S
C785        C786   1.213       .  T
C787        C788   1.212       .  T
C793        C801   1.447       .  S
C793        C794   1.402       .  A
C793        C798   1.403       .  A
C794        C795   1.401       .  A
C794        H803   1.083       .  S
C795        C796   1.403       .  A
C795        H804   1.084       .  S
C796        C799   1.447       .  S
C796        C797   1.403       .  A
C797        C798   1.402       .  A
C797        H805   1.084       .  S
C798        H806   1.084       .  S
C799        C800   1.210       .  T
C801        C802   1.210       .  T
C807        C815   1.449       .  S
C807        C808   1.403       .  A
C807        C812   1.403       .  A
C808        C809   1.403       .  A
C808        H817   1.084       .  S
C809        C810   1.403       .  A
C809        H818   1.084       .  S
C810        C813   1.449       .  S
C810        C811   1.403       .  A
C811        C812   1.402       .  A
C811        H819   1.083       .  S
C812        H820   1.083       .  S
C813        C814   1.211       .  T
C815        C816   1.212       .  T
C821        C829   1.451       .  S
C821        C822   1.403       .  A
C821        C826   1.404       .  A
C822        C823   1.404       .  A
C822        H831   1.084       .  S
C823        C824   1.403       .  A
C823        H832   1.084       .  S
C824        C827   1.451       .  S
C824        C825   1.403       .  A
C825        C826   1.403       .  A
C825        H833   1.083       .  S
C826        H834   1.083       .  S
C827        C828   1.213       .  T
C829        C830   1.213       .  T
C835        C843   1.448       .  S
C835        C836   1.403       .  A
C835        C840   1.403   1_455  A
C836        C837   1.402       .  A
C836        H845   1.083       .  S
C837        C838   1.403       .  A
C837        H846   1.083       .  S
C838        C841   1.450   1_455  S
C838        C839   1.403   1_455  A
C839        C840   1.403       .  A
C839        H847   1.084       .  S
C840        H848   1.084       .  S
C841        C842   1.212       .  T
C843        C844   1.211       .  T
C849        C857   1.445       .  S
C849        C850   1.402       .  A
C849        C854   1.403       .  A
C850        C851   1.399       .  A
C850        H859   1.084       .  S
C851        C852   1.401       .  A
C851        H860   1.084       .  S
C852        C855   1.444       .  S
C852        C853   1.403       .  A
C853        C854   1.402       .  A
C853        H861   1.083       .  S
C854        H862   1.083       .  S
C855        C856   1.208       .  T
C857        C858   1.209       .  T
C863        C871   1.445       .  S
C863        C864   1.403       .  A
C863        C868   1.402       .  A
C864        C865   1.402       .  A
C864        H873   1.083       .  S
C865        C866   1.403       .  A
C865        H874   1.083       .  S
C866        C869   1.447       .  S
C866        C867   1.403       .  A
C867        C868   1.401       .  A
C867        H875   1.084       .  S
C868        H876   1.084       .  S
C869        C870   1.211       .  T
C871        C872   1.209       .  T
C877        C885   1.446       .  S
C877        C878   1.402       .  A
C877        C882   1.403       .  A
C878        C879   1.400       .  A
C878        H887   1.084       .  S
C879        C880   1.402       .  A
C879        H888   1.084       .  S
C880        C883   1.444       .  S
C880        C881   1.402       .  A
C881        C882   1.401       .  A
C881        H889   1.083       .  S
C882        H890   1.083       .  S
C883        C884   1.208       .  T
C885        C886   1.209       .  T
C891        C899   1.447       .  S
C891        C892   1.402       .  A
C891        C896   1.403       .  A
C892        C893   1.400       .  A
C892        H901   1.084       .  S
C893        C894   1.402       .  A
C893        H902   1.084       .  S
C894        C897   1.447       .  S
C894        C895   1.403       .  A
C895        C896   1.403       .  A
C895        H903   1.083       .  S
C896        H904   1.084       .  S
C897        C898   1.210       .  T
C899        C900   1.210       .  T
C905        C913   1.450       .  S
C905        C906   1.403       .  A
C905        C910   1.403       .  A
C906        C907   1.402       .  A
C906        H915   1.084       .  S
C907        C908   1.403       .  A
C907        H916   1.084       .  S
C908        C911   1.448       .  S
C908        C909   1.403       .  A
C909        C910   1.403       .  A
C909        H917   1.083       .  S
C910        H918   1.083       .  S
C911        C912   1.211       .  T
C913        C914   1.212       .  T
C919        C927   1.447       .  S
C919        C920   1.402       .  A
C919        C924   1.403       .  A
C920        C921   1.402       .  A
C920        H929   1.084       .  S
C921        C922   1.403       .  A
C921        H930   1.084       .  S
C922        C925   1.447       .  S
C922        C923   1.403       .  A
C923        C924   1.402       .  A
C923        H931   1.083       .  S
C924        H932   1.083       .  S
C925        C926   1.210       .  T
C927        C928   1.210       .  T
C933        C941   1.445       .  S
C933        C934   1.403   1_556  A
C933        C938   1.402       .  A
C934        C935   1.402       .  A
C934        H943   1.083       .  S
C935        C936   1.402       .  A
C935        H944   1.083       .  S
C936        C939   1.445       .  S
C936        C937   1.402   1_554  A
C937        C938   1.401       .  A
C937        H945   1.084       .  S
C938        H946   1.084       .  S
C939        C940   1.209       .  T
C941        C942   1.209       .  T
C947        C955   1.446       .  S
C947        C948   1.403       .  A
C947        C952   1.402       .  A
C948        C949   1.402       .  A
C948        H957   1.083       .  S
C949        C950   1.402       .  A
C949        H958   1.083       .  S
C950        C953   1.446       .  S
C950        C951   1.403       .  A
C951        C952   1.401       .  A
C951        H959   1.084       .  S
C952        H960   1.084       .  S
C953        C954   1.209       .  T
C955        C956   1.209       .  T
C961        C969   1.444       .  S
C961        C962   1.402       .  A
C961        C966   1.403       .  A
C962        C963   1.399       .  A
C962        H971   1.083       .  S
C963        C964   1.402       .  A
C963        H972   1.083       .  S
C964        C967   1.444       .  S
C964        C965   1.403       .  A
C965        C966   1.402       .  A
C965        H973   1.084       .  S
C966        H974   1.084       .  S
C967        C968   1.209       .  T
C969        C970   1.209       .  T
C975        C983   1.448       .  S
C975        C976   1.402       .  A
C975        C980   1.403       .  A
C976        C977   1.402       .  A
C976        H985   1.084       .  S
C977        C978   1.403       .  A
C977        H986   1.084       .  S
C978        C981   1.449       .  S
C978        C979   1.403       .  A
C979        C980   1.403       .  A
C979        H987   1.083       .  S
C980        H988   1.083       .  S
C981        C982   1.212       .  T
C983        C984   1.211       .  T
C989        C997   1.451       .  S
C989        C990   1.403       .  A
C989        C994   1.403       .  A
C990        C991   1.403       .  A
C990        H999   1.083       .  S
C991        C992   1.403       .  A
C991       H1000   1.084       .  S
C992        C995   1.450       .  S
C992        C993   1.403       .  A
C993        C994   1.403       .  A
C993       H1001   1.083       .  S
C994       H1002   1.083       .  S
C995        C996   1.212       .  T
C997        C998   1.213       .  T
C1003      C1011   1.445       .  S
C1003      C1004   1.403       .  A
C1003      C1008   1.402       .  A
C1004      C1005   1.402       .  A
C1004      H1013   1.084       .  S
C1005      C1006   1.403       .  A
C1005      H1014   1.084       .  S
C1006      C1009   1.445       .  S
C1006      C1007   1.402       .  A
C1007      C1008   1.400       .  A
C1007      H1015   1.083       .  S
C1008      H1016   1.083       .  S
C1009      C1010   1.209       .  T
C1011      C1012   1.209       .  T
C1017      C1025   1.446       .  S
C1017      C1018   1.402       .  A
C1017      C1022   1.403       .  A
C1018      C1019   1.401       .  A
C1018      H1027   1.084       .  S
C1019      C1020   1.402       .  A
C1019      H1028   1.084       .  S
C1020      C1023   1.448       .  S
C1020      C1021   1.403       .  A
C1021      C1022   1.402       .  A
C1021      H1029   1.083       .  S
C1022      H1030   1.083       .  S
C1023      C1024   1.211       .  T
C1025      C1026   1.210       .  T
C1031      C1039   1.446       .  S
C1031      C1032   1.402       .  A
C1031      C1036   1.403       .  A
C1032      C1033   1.401       .  A
C1032      H1041   1.083       .  S
C1033      C1034   1.402       .  A
C1033      H1042   1.084       .  S
C1034      C1037   1.445       .  S
C1034      C1035   1.402       .  A
C1035      C1036   1.402       .  A
C1035      H1043   1.084       .  S
C1036      H1044   1.084       .  S
C1037      C1038   1.209       .  T
C1039      C1040   1.210       .  T
C1045      C1053   1.445       .  S
C1045      C1046   1.402       .  A
C1045      C1050   1.403       .  A
C1046      C1047   1.400   1_545  A
C1046      H1055   1.084       .  S
C1047      C1048   1.402       .  A
C1047      H1056   1.084       .  S
C1048      C1051   1.445       .  S
C1048      C1049   1.403       .  A
C1049      C1050   1.402   1_565  A
C1049      H1057   1.083       .  S
C1050      H1058   1.083       .  S
C1051      C1052   1.209       .  T
C1053      C1054   1.209       .  T
C1059      C1067   1.446       .  S
C1059      C1060   1.402       .  A
C1059      C1064   1.403       .  A
C1060      C1061   1.400       .  A
C1060      H1069   1.083       .  S
C1061      C1062   1.402       .  A
C1061      H1070   1.083       .  S
C1062      C1065   1.446       .  S
C1062      C1063   1.403       .  A
C1063      C1064   1.403       .  A
C1063      H1071   1.084       .  S
C1064      H1072   1.084       .  S
C1065      C1066   1.210       .  T
C1067      C1068   1.210       .  T
C1073      C1081   1.448       .  S
C1073      C1074   1.403       .  A
C1073      C1078   1.403       .  A
C1074      C1075   1.403       .  A
C1074      H1083   1.084       .  S
C1075      C1076   1.403       .  A
C1075      H1084   1.084       .  S
C1076      C1079   1.449       .  S
C1076      C1077   1.403       .  A
C1077      C1078   1.402       .  A
C1077      H1085   1.084       .  S
C1078      H1086   1.084       .  S
C1079      C1080   1.211       .  T
C1081      C1082   1.210       .  T
C1087      C1095   1.447       .  S
C1087      C1088   1.403       .  A
C1087      C1092   1.403       .  A
C1088      C1089   1.402       .  A
C1088      H1097   1.084       .  S
C1089      C1090   1.402       .  A
C1089      H1098   1.084       .  S
C1090      C1093   1.447       .  S
C1090      C1091   1.403       .  A
C1091      C1092   1.402       .  A
C1091      H1099   1.083       .  S
C1092      H1100   1.084       .  S
C1093      C1094   1.210       .  T
C1095      C1096   1.211       .  T
C1101      C1109   1.448       .  S
C1101      C1102   1.403       .  A
C1101      C1106   1.402       .  A
C1102      C1103   1.402       .  A
C1102      H1111   1.084       .  S
C1103      C1104   1.403       .  A
C1103      H1112   1.084       .  S
C1104      C1107   1.448       .  S
C1104      C1105   1.403       .  A
C1105      C1106   1.402       .  A
C1105      H1113   1.083       .  S
C1106      H1114   1.083       .  S
C1107      C1108   1.211       .  T
C1109      C1110   1.211       .  T
C1115      C1123   1.449       .  S
C1115      C1116   1.402       .  A
C1115      C1120   1.403       .  A
C1116      C1117   1.401       .  A
C1116      H1125   1.084       .  S
C1117      C1118   1.403       .  A
C1117      H1126   1.084       .  S
C1118      C1121   1.449       .  S
C1118      C1119   1.403       .  A
C1119      C1120   1.404       .  A
C1119      H1127   1.083       .  S
C1120      H1128   1.083       .  S
C1121      C1122   1.211       .  T
C1123      C1124   1.211       .  T
C1129      C1137   1.445       .  S
C1129      C1130   1.402       .  A
C1129      C1134   1.402       .  A
C1130      C1131   1.400       .  A
C1130      H1139   1.084       .  S
C1131      C1132   1.401       .  A
C1131      H1140   1.084       .  S
C1132      C1135   1.444       .  S
C1132      C1133   1.403       .  A
C1133      C1134   1.402       .  A
C1133      H1141   1.084       .  S
C1134      H1142   1.084       .  S
C1135      C1136   1.208       .  T
C1137      C1138   1.209       .  T
C1143      C1151   1.447   1_455  S
C1143      C1144   1.403   1_455  A
C1143      C1148   1.403       .  A
C1144      C1145   1.401       .  A
C1144      H1153   1.084       .  S
C1145      C1146   1.402   1_655  A
C1145      H1154   1.084       .  S
C1146      C1149   1.446       .  S
C1146      C1147   1.403       .  A
C1147      C1148   1.402       .  A
C1147      H1155   1.084       .  S
C1148      H1156   1.084       .  S
C1149      C1150   1.210       .  T
C1151      C1152   1.210       .  T
C1157      C1165   1.449       .  S
C1157      C1158   1.403       .  A
C1157      C1162   1.403       .  A
C1158      C1159   1.402       .  A
C1158      H1167   1.084       .  S
C1159      C1160   1.402       .  A
C1159      H1168   1.083       .  S
C1160      C1163   1.449       .  S
C1160      C1161   1.404       .  A
C1161      C1162   1.403       .  A
C1161      H1169   1.084       .  S
C1162      H1170   1.084       .  S
C1163      C1164   1.211       .  T
C1165      C1166   1.212       .  T
C1171      C1179   1.447       .  S
C1171      C1172   1.403       .  A
C1171      C1176   1.402       .  A
C1172      C1173   1.402       .  A
C1172      H1181   1.084       .  S
C1173      C1174   1.403       .  A
C1173      H1182   1.084       .  S
C1174      C1177   1.446       .  S
C1174      C1175   1.402       .  A
C1175      C1176   1.401       .  A
C1175      H1183   1.083       .  S
C1176      H1184   1.083       .  S
C1177      C1178   1.210       .  T
C1179      C1180   1.210       .  T
C1185      C1193   1.451       .  S
C1185      C1186   1.403       .  A
C1185      C1190   1.404       .  A
C1186      C1187   1.403       .  A
C1186      H1195   1.083       .  S
C1187      C1188   1.403       .  A
C1187      H1196   1.083       .  S
C1188      C1191   1.452       .  S
C1188      C1189   1.404       .  A
C1189      C1190   1.404       .  A
C1189      H1197   1.083       .  S
C1190      H1198   1.084       .  S
C1191      C1192   1.213       .  T
C1193      C1194   1.213       .  T
C1199      C1207   1.448       .  S
C1199      C1200   1.402       .  A
C1199      C1204   1.403       .  A
C1200      C1201   1.402       .  A
C1200      H1209   1.083       .  S
C1201      C1202   1.403       .  A
C1201      H1210   1.084       .  S
C1202      C1205   1.448       .  S
C1202      C1203   1.403       .  A
C1203      C1204   1.402       .  A
C1203      H1211   1.084       .  S
C1204      H1212   1.084       .  S
C1205      C1206   1.211       .  T
C1207      C1208   1.211       .  T
C1213      C1221   1.447       .  S
C1213      C1214   1.403       .  A
C1213      C1218   1.402       .  A
C1214      C1215   1.402       .  A
C1214      H1223   1.083       .  S
C1215      C1216   1.403       .  A
C1215      H1224   1.083       .  S
C1216      C1219   1.446       .  S
C1216      C1217   1.402       .  A
C1217      C1218   1.401       .  A
C1217      H1225   1.084       .  S
C1218      H1226   1.084       .  S
C1219      C1220   1.209       .  T
C1221      C1222   1.210       .  T
C1227      C1235   1.447       .  S
C1227      C1228   1.403       .  A
C1227      C1232   1.403       .  A
C1228      C1229   1.402       .  A
C1228      H1237   1.083       .  S
C1229      C1230   1.403       .  A
C1229      H1238   1.083       .  S
C1230      C1233   1.447       .  S
C1230      C1231   1.403       .  A
C1231      C1232   1.402       .  A
C1231      H1239   1.084       .  S
C1232      H1240   1.084       .  S
C1233      C1234   1.210       .  T
C1235      C1236   1.210       .  T
C1241      C1249   1.449       .  S
C1241      C1242   1.403       .  A
C1241      C1246   1.403       .  A
C1242      C1243   1.403       .  A
C1242      H1251   1.084       .  S
C1243      C1244   1.403       .  A
C1243      H1252   1.084       .  S
C1244      C1247   1.449       .  S
C1244      C1245   1.403       .  A
C1245      C1246   1.402       .  A
C1245      H1253   1.083       .  S
C1246      H1254   1.083       .  S
C1247      C1248   1.212       .  T
C1249      C1250   1.211       .  T
C1255      C1263   1.446       .  S
C1255      C1256   1.402       .  A
C1255      C1260   1.403       .  A
C1256      C1257   1.401       .  A
C1256      H1265   1.084       .  S
C1257      C1258   1.403       .  A
C1257      H1266   1.084       .  S
C1258      C1261   1.448       .  S
C1258      C1259   1.403       .  A
C1259      C1260   1.402       .  A
C1259      H1267   1.084       .  S
C1260      H1268   1.084       .  S
C1261      C1262   1.211       .  T
C1263      C1264   1.210       .  T
C1269      C1277   1.450       .  S
C1269      C1270   1.404   1_565  A
C1269      C1274   1.403       .  A
C1270      C1271   1.404       .  A
C1270      H1279   1.083       .  S
C1271      C1272   1.403       .  A
C1271      H1280   1.083       .  S
C1272      C1275   1.450       .  S
C1272      C1273   1.403   1_545  A
C1273      C1274   1.402       .  A
C1273      H1281   1.084       .  S
C1274      H1282   1.084       .  S
C1275      C1276   1.212       .  T
C1277      C1278   1.212       .  T
C1283      C1291   1.449       .  S
C1283      C1284   1.403       .  A
C1283      C1288   1.403       .  A
C1284      C1285   1.402       .  A
C1284      H1293   1.084       .  S
C1285      C1286   1.402       .  A
C1285      H1294   1.084       .  S
C1286      C1289   1.450       .  S
C1286      C1287   1.404       .  A
C1287      C1288   1.404       .  A
C1287      H1295   1.083       .  S
C1288      H1296   1.083       .  S
C1289      C1290   1.212       .  T
C1291      C1292   1.211       .  T
C1297      C1305   1.445       .  S
C1297      C1298   1.403       .  A
C1297      C1302   1.402       .  A
C1298      C1299   1.402       .  A
C1298      H1307   1.083       .  S
C1299      C1300   1.402       .  A
C1299      H1308   1.083       .  S
C1300      C1303   1.446       .  S
C1300      C1301   1.402       .  A
C1301      C1302   1.400       .  A
C1301      H1309   1.084       .  S
C1302      H1310   1.084       .  S
C1303      C1304   1.210       .  T
C1305      C1306   1.209       .  T
C1311      C1319   1.450       .  S
C1311      C1312   1.403       .  A
C1311      C1316   1.403       .  A
C1312      C1313   1.403       .  A
C1312      H1321   1.083       .  S
C1313      C1314   1.403       .  A
C1313      H1322   1.083       .  S
C1314      C1317   1.450       .  S
C1314      C1315   1.403       .  A
C1315      C1316   1.403       .  A
C1315      H1323   1.084       .  S
C1316      H1324   1.084       .  S
C1317      C1318   1.212       .  T
C1319      C1320   1.212       .  T
C1325      C1333   1.448       .  S
C1325      C1326   1.403       .  A
C1325      C1330   1.402       .  A
C1326      C1327   1.403       .  A
C1326      H1335   1.083       .  S
C1327      C1328   1.403       .  A
C1327      H1336   1.083       .  S
C1328      C1331   1.447       .  S
C1328      C1329   1.402       .  A
C1329      C1330   1.401       .  A
C1329      H1337   1.084       .  S
C1330      H1338   1.084       .  S
C1331      C1332   1.210       .  T
C1333      C1334   1.211       .  T
C1339      C1347   1.447       .  S
C1339      C1340   1.402       .  A
C1339      C1344   1.403       .  A
C1340      C1341   1.401       .  A
C1340      H1349   1.084       .  S
C1341      C1342   1.403       .  A
C1341      H1350   1.084       .  S
C1342      C1345   1.447       .  S
C1342      C1343   1.403       .  A
C1343      C1344   1.403       .  A
C1343      H1351   1.084       .  S
C1344      H1352   1.084       .  S
C1345      C1346   1.210       .  T
C1347      C1348   1.210       .  T
C1353      C1361   1.447       .  S
C1353      C1354   1.402       .  A
C1353      C1358   1.403       .  A
C1354      C1355   1.401       .  A
C1354      H1363   1.084       .  S
C1355      C1356   1.403       .  A
C1355      H1364   1.084       .  S
C1356      C1359   1.448       .  S
C1356      C1357   1.403       .  A
C1357      C1358   1.402       .  A
C1357      H1365   1.083       .  S
C1358      H1366   1.084       .  S
C1359      C1360   1.211       .  T
C1361      C1362   1.210       .  T
C1367      C1375   1.451       .  S
C1367      C1368   1.404       .  A
C1367      C1372   1.403       .  A
C1368      C1369   1.404       .  A
C1368      H1377   1.084       .  S
C1369      C1370   1.404       .  A
C1369      H1378   1.084       .  S
C1370      C1373   1.452       .  S
C1370      C1371   1.403       .  A
C1371      C1372   1.403       .  A
C1371      H1379   1.083       .  S
C1372      H1380   1.083       .  S
C1373      C1374   1.213       .  T
C1375      C1376   1.212       .  T
C1381      C1389   1.449       .  S
C1381      C1382   1.402       .  A
C1381      C1386   1.404       .  A
C1382      C1383   1.401       .  A
C1382      H1391   1.084       .  S
C1383      C1384   1.402       .  A
C1383      H1392   1.084       .  S
C1384      C1387   1.450       .  S
C1384      C1385   1.404       .  A
C1385      C1386   1.404       .  A
C1385      H1393   1.083       .  S
C1386      H1394   1.083       .  S
C1387      C1388   1.212       .  T
C1389      C1390   1.212       .  T
C1395      C1403   1.447       .  S
C1395      C1396   1.403       .  A
C1395      C1400   1.402       .  A
C1396      C1397   1.402       .  A
C1396      H1405   1.083       .  S
C1397      C1398   1.403       .  A
C1397      H1406   1.083       .  S
C1398      C1401   1.448       .  S
C1398      C1399   1.403       .  A
C1399      C1400   1.402       .  A
C1399      H1407   1.084       .  S
C1400      H1408   1.084       .  S
C1401      C1402   1.211       .  T
C1403      C1404   1.210       .  T
C1409      C1417   1.451       .  S
C1409      C1410   1.403   1_556  A
C1409      C1414   1.404       .  A
C1410      C1411   1.403       .  A
C1410      H1419   1.084       .  S
C1411      C1412   1.403       .  A
C1411      H1420   1.084       .  S
C1412      C1415   1.451       .  S
C1412      C1413   1.404   1_554  A
C1413      C1414   1.404       .  A
C1413      H1421   1.083       .  S
C1414      H1422   1.083       .  S
C1415      C1416   1.213       .  T
C1417      C1418   1.213       .  T
C1423      C1431   1.448       .  S
C1423      C1424   1.403       .  A
C1423      C1428   1.403       .  A
C1424      C1425   1.402       .  A
C1424      H1433   1.084       .  S
C1425      C1426   1.403       .  A
C1425      H1434   1.084       .  S
C1426      C1429   1.448       .  S
C1426      C1427   1.403       .  A
C1427      C1428   1.402       .  A
C1427      H1435   1.083       .  S
C1428      H1436   1.084       .  S
C1429      C1430   1.211       .  T
C1431      C1432   1.211       .  T
C1437      C1445   1.452       .  S
C1437      C1438   1.404       .  A
C1437      C1442   1.403       .  A
C1438      C1439   1.404       .  A
C1438      H1447   1.083       .  S
C1439      C1440   1.404       .  A
C1439      H1448   1.083       .  S
C1440      C1443   1.450       .  S
C1440      C1441   1.403       .  A
C1441      C1442   1.402       .  A
C1441      H1449   1.084       .  S
C1442      H1450   1.084       .  S
C1443      C1444   1.212       .  T
C1445      C1446   1.213       .  T
C1451      C1459   1.450       .  S
C1451      C1452   1.404       .  A
C1451      C1456   1.403       .  A
C1452      C1453   1.404       .  A
C1452      H1461   1.083       .  S
C1453      C1454   1.403       .  A
C1453      H1462   1.083       .  S
C1454      C1457   1.450       .  S
C1454      C1455   1.403       .  A
C1455      C1456   1.402       .  A
C1455      H1463   1.084       .  S
C1456      H1464   1.084       .  S
C1457      C1458   1.212       .  T
C1459      C1460   1.212       .  T
C1465      C1473   1.447       .  S
C1465      C1466   1.402       .  A
C1465      C1470   1.403       .  A
C1466      C1467   1.401       .  A
C1466      H1475   1.084       .  S
C1467      C1468   1.402       .  A
C1467      H1476   1.084       .  S
C1468      C1471   1.445       .  S
C1468      C1469   1.402       .  A
C1469      C1470   1.402       .  A
C1469      H1477   1.084       .  S
C1470      H1478   1.084       .  S
C1471      C1472   1.209       .  T
C1473      C1474   1.210       .  T
C1479      C1487   1.449       .  S
C1479      C1480   1.403       .  A
C1479      C1484   1.403       .  A
C1480      C1481   1.404       .  A
C1480      H1489   1.083       .  S
C1481      C1482   1.404       .  A
C1481      H1490   1.083       .  S
C1482      C1485   1.450       .  S
C1482      C1483   1.403       .  A
C1483      C1484   1.402       .  A
C1483      H1491   1.084       .  S
C1484      H1492   1.083       .  S
C1485      C1486   1.212       .  T
C1487      C1488   1.212       .  T
C1493      C1501   1.451       .  S
C1493      C1494   1.403       .  A
C1493      C1498   1.403       .  A
C1494      C1495   1.403       .  A
C1494      H1503   1.084       .  S
C1495      C1496   1.403       .  A
C1495      H1504   1.084       .  S
C1496      C1499   1.451       .  S
C1496      C1497   1.403       .  A
C1497      C1498   1.403       .  A
C1497      H1505   1.083       .  S
C1498      H1506   1.083       .  S
C1499      C1500   1.212       .  T
C1501      C1502   1.213       .  T
C1507      C1515   1.447       .  S
C1507      C1508   1.403       .  A
C1507      C1512   1.402       .  A
C1508      C1509   1.403       .  A
C1508      H1517   1.083       .  S
C1509      C1510   1.403       .  A
C1509      H1518   1.083       .  S
C1510      C1513   1.447       .  S
C1510      C1511   1.402       .  A
C1511      C1512   1.401       .  A
C1511      H1519   1.084       .  S
C1512      H1520   1.084       .  S
C1513      C1514   1.210       .  T
C1515      C1516   1.210       .  T
C1521      C1529   1.449       .  S
C1521      C1522   1.403       .  A
C1521      C1526   1.403       .  A
C1522      C1523   1.404       .  A
C1522      H1531   1.083       .  S
C1523      C1524   1.403       .  A
C1523      H1532   1.083       .  S
C1524      C1527   1.449       .  S
C1524      C1525   1.402       .  A
C1525      C1526   1.401       .  A
C1525      H1533   1.084       .  S
C1526      H1534   1.084       .  S
C1527      C1528   1.211       .  T
C1529      C1530   1.211       .  T
C1535      C1543   1.445       .  S
C1535      C1536   1.402       .  A
C1535      C1540   1.402       .  A
C1536      C1537   1.402       .  A
C1536      H1545   1.083       .  S
C1537      C1538   1.403       .  A
C1537      H1546   1.083       .  S
C1538      C1541   1.445       .  S
C1538      C1539   1.402       .  A
C1539      C1540   1.401       .  A
C1539      H1547   1.084       .  S
C1540      H1548   1.084       .  S
C1541      C1542   1.209       .  T
C1543      C1544   1.209       .  T
C1549      C1557   1.449       .  S
C1549      C1550   1.403       .  A
C1549      C1554   1.403       .  A
C1550      C1551   1.402       .  A
C1550      H1559   1.084       .  S
C1551      C1552   1.402       .  A
C1551      H1560   1.084       .  S
C1552      C1555   1.448       .  S
C1552      C1553   1.403       .  A
C1553      C1554   1.403       .  A
C1553      H1561   1.083       .  S
C1554      H1562   1.084       .  S
C1555      C1556   1.211       .  T
C1557      C1558   1.211       .  T
C1563      C1571   1.448       .  S
C1563      C1564   1.403       .  A
C1563      C1568   1.403   1_545  A
C1564      C1565   1.402       .  A
C1564      H1573   1.084       .  S
C1565      C1566   1.403   1_545  A
C1565      H1574   1.084       .  S
C1566      C1569   1.447       .  S
C1566      C1567   1.402       .  A
C1567      C1568   1.402       .  A
C1567      H1575   1.083       .  S
C1568      H1576   1.083       .  S
C1569      C1570   1.210       .  T
C1571      C1572   1.211       .  T
C1577      C1585   1.447       .  S
C1577      C1578   1.403       .  A
C1577      C1582   1.403       .  A
C1578      C1579   1.402       .  A
C1578      H1587   1.084       .  S
C1579      C1580   1.402       .  A
C1579      H1588   1.084       .  S
C1580      C1583   1.446       .  S
C1580      C1581   1.403       .  A
C1581      C1582   1.402       .  A
C1581      H1589   1.083       .  S
C1582      H1590   1.083       .  S
C1583      C1584   1.210       .  T
C1585      C1586   1.211       .  T
C1591      C1599   1.449       .  S
C1591      C1592   1.403       .  A
C1591      C1596   1.403       .  A
C1592      C1593   1.403       .  A
C1592      H1601   1.083       .  S
C1593      C1594   1.403       .  A
C1593      H1602   1.084       .  S
C1594      C1597   1.448       .  S
C1594      C1595   1.402       .  A
C1595      C1596   1.401       .  A
C1595      H1603   1.083       .  S
C1596      H1604   1.084       .  S
C1597      C1598   1.211       .  T
C1599      C1600   1.211       .  T
C1605      C1613   1.449       .  S
C1605      C1606   1.403       .  A
C1605      C1610   1.403       .  A
C1606      C1607   1.403       .  A
C1606      H1615   1.083       .  S
C1607      C1608   1.403       .  A
C1607      H1616   1.083       .  S
C1608      C1611   1.449       .  S
C1608      C1609   1.403       .  A
C1609      C1610   1.402       .  A
C1609      H1617   1.084       .  S
C1610      H1618   1.084       .  S
C1611      C1612   1.212       .  T
C1613      C1614   1.211       .  T
C1619      C1627   1.449       .  S
C1619      C1620   1.403       .  A
C1619      C1624   1.403       .  A
C1620      C1621   1.403       .  A
C1620      H1629   1.083       .  S
C1621      C1622   1.403       .  A
C1621      H1630   1.083       .  S
C1622      C1625   1.449       .  S
C1622      C1623   1.403       .  A
C1623      C1624   1.402       .  A
C1623      H1631   1.084       .  S
C1624      H1632   1.084       .  S
C1625      C1626   1.211       .  T
C1627      C1628   1.212       .  T
C1633      C1641   1.448       .  S
C1633      C1634   1.403       .  A
C1633      C1638   1.402       .  A
C1634      C1635   1.403       .  A
C1634      H1643   1.084       .  S
C1635      C1636   1.403       .  A
C1635      H1644   1.084       .  S
C1636      C1639   1.447       .  S
C1636      C1637   1.402       .  A
C1637      C1638   1.401       .  A
C1637      H1645   1.084       .  S
C1638      H1646   1.084       .  S
C1639      C1640   1.210       .  T
C1641      C1642   1.211       .  T
C1647      C1655   1.451       .  S
C1647      C1648   1.404       .  A
C1647      C1652   1.403       .  A
C1648      C1649   1.404       .  A
C1648      H1657   1.083       .  S
C1649      C1650   1.404       .  A
C1649      H1658   1.083       .  S
C1650      C1653   1.450       .  S
C1650      C1651   1.403       .  A
C1651      C1652   1.402       .  A
C1651      H1659   1.084       .  S
C1652      H1660   1.084       .  S
C1653      C1654   1.212       .  T
C1655      C1656   1.213       .  T
C1661      C1669   1.453       .  S
C1661      C1662   1.403       .  A
C1661      C1666   1.404       .  A
C1662      C1663   1.404       .  A
C1662      H1671   1.083       .  S
C1663      C1664   1.403       .  A
C1663      H1672   1.084       .  S
C1664      C1667   1.454       .  S
C1664      C1665   1.404       .  A
C1665      C1666   1.405       .  A
C1665      H1673   1.083       .  S
C1666      H1674   1.083       .  S
C1667      C1668   1.215       .  T
C1669      C1670   1.214       .  T
C1675      C1683   1.448       .  S
C1675      C1676   1.403       .  A
C1675      C1680   1.403       .  A
C1676      C1677   1.402       .  A
C1676      H1685   1.084       .  S
C1677      C1678   1.403       .  A
C1677      H1686   1.084       .  S
C1678      C1681   1.447       .  S
C1678      C1679   1.402       .  A
C1679      C1680   1.402       .  A
C1679      H1687   1.083       .  S
C1680      H1688   1.083       .  S
C1681      C1682   1.210       .  T
C1683      C1684   1.211       .  T
C1689      C1697   1.452       .  S
C1689      C1690   1.404       .  A
C1689      C1694   1.403       .  A
C1690      C1691   1.404       .  A
C1690      H1699   1.083       .  S
C1691      C1692   1.404       .  A
C1691      H1700   1.083       .  S
C1692      C1695   1.451       .  S
C1692      C1693   1.403       .  A
C1693      C1694   1.403       .  A
C1693      H1701   1.084       .  S
C1694      H1702   1.084       .  S
C1695      C1696   1.212       .  T
C1697      C1698   1.213       .  T
C1703      C1711   1.450       .  S
C1703      C1704   1.403       .  A
C1703      C1708   1.403       .  A
C1704      C1705   1.403       .  A
C1704      H1713   1.083       .  S
C1705      C1706   1.403       .  A
C1705      H1714   1.083       .  S
C1706      C1709   1.450       .  S
C1706      C1707   1.403       .  A
C1707      C1708   1.402       .  A
C1707      H1715   1.084       .  S
C1708      H1716   1.084       .  S
C1709      C1710   1.212       .  T
C1711      C1712   1.212       .  T
C1717      C1725   1.449       .  S
C1717      C1718   1.403       .  A
C1717      C1722   1.403       .  A
C1718      C1719   1.401       .  A
C1718      H1727   1.084       .  S
C1719      C1720   1.402       .  A
C1719      H1728   1.084       .  S
C1720      C1723   1.448       .  S
C1720      C1721   1.403       .  A
C1721      C1722   1.403       .  A
C1721      H1729   1.084       .  S
C1722      H1730   1.083       .  S
C1723      C1724   1.211       .  T
C1725      C1726   1.211       .  T
C1731      C1739   1.449   1_554  S
C1731      C1732   1.402   1_554  A
C1731      C1736   1.404       .  A
C1732      C1733   1.402       .  A
C1732      H1741   1.084       .  S
C1733      C1734   1.403   1_556  A
C1733      H1742   1.084       .  S
C1734      C1737   1.449       .  S
C1734      C1735   1.403       .  A
C1735      C1736   1.403       .  A
C1735      H1743   1.083       .  S
C1736      H1744   1.083       .  S
C1737      C1738   1.211       .  T
C1739      C1740   1.211       .  T
C1745      C1753   1.447       .  S
C1745      C1746   1.403       .  A
C1745      C1750   1.402       .  A
C1746      C1747   1.402       .  A
C1746      H1755   1.084       .  S
C1747      C1748   1.403       .  A
C1747      H1756   1.084       .  S
C1748      C1751   1.447       .  S
C1748      C1749   1.402       .  A
C1749      C1750   1.401       .  A
C1749      H1757   1.083       .  S
C1750      H1758   1.084       .  S
C1751      C1752   1.210       .  T
C1753      C1754   1.210       .  T
C1759      C1767   1.443       .  S
C1759      C1760   1.403       .  A
C1759      C1764   1.401       .  A
C1760      C1761   1.402       .  A
C1760      H1769   1.084       .  S
C1761      C1762   1.402       .  A
C1761      H1770   1.083       .  S
C1762      C1765   1.445       .  S
C1762      C1763   1.402       .  A
C1763      C1764   1.399       .  A
C1763      H1771   1.084       .  S
C1764      H1772   1.084       .  S
C1765      C1766   1.209       .  T
C1767      C1768   1.208       .  T
C1773      C1781   1.449       .  S
C1773      C1774   1.403       .  A
C1773      C1778   1.403       .  A
C1774      C1775   1.402       .  A
C1774      H1783   1.083       .  S
C1775      C1776   1.403       .  A
C1775      H1784   1.083       .  S
C1776      C1779   1.448       .  S
C1776      C1777   1.403       .  A
C1777      C1778   1.403       .  A
C1777      H1785   1.084       .  S
C1778      H1786   1.084       .  S
C1779      C1780   1.211       .  T
C1781      C1782   1.212       .  T
C1787      C1795   1.446       .  S
C1787      C1788   1.402       .  A
C1787      C1792   1.403       .  A
C1788      C1789   1.401       .  A
C1788      H1797   1.084       .  S
C1789      C1790   1.402       .  A
C1789      H1798   1.084       .  S
C1790      C1793   1.446       .  S
C1790      C1791   1.403       .  A
C1791      C1792   1.402       .  A
C1791      H1799   1.083       .  S
C1792      H1800   1.083       .  S
C1793      C1794   1.210       .  T
C1795      C1796   1.210       .  T
C1801      C1809   1.448       .  S
C1801      C1802   1.403       .  A
C1801      C1806   1.403       .  A
C1802      C1803   1.401       .  A
C1802      H1811   1.083       .  S
C1803      C1804   1.402       .  A
C1803      H1812   1.083       .  S
C1804      C1807   1.448       .  S
C1804      C1805   1.404       .  A
C1805      C1806   1.403       .  A
C1805      H1813   1.084       .  S
C1806      H1814   1.084       .  S
C1807      C1808   1.211       .  T
C1809      C1810   1.211       .  T
C1815      C1823   1.448       .  S
C1815      C1816   1.403       .  A
C1815      C1820   1.402       .  A
C1816      C1817   1.403       .  A
C1816      H1825   1.083       .  S
C1817      C1818   1.403       .  A
C1817      H1826   1.083       .  S
C1818      C1821   1.448       .  S
C1818      C1819   1.403       .  A
C1819      C1820   1.402       .  A
C1819      H1827   1.084       .  S
C1820      H1828   1.084       .  S
C1821      C1822   1.211       .  T
C1823      C1824   1.211       .  T
C1829      C1837   1.444       .  S
C1829      C1830   1.402       .  A
C1829      C1834   1.402       .  A
C1830      C1831   1.401       .  A
C1830      H1839   1.083       .  S
C1831      C1832   1.403       .  A
C1831      H1840   1.084       .  S
C1832      C1835   1.445       .  S
C1832      C1833   1.402       .  A
C1833      C1834   1.400       .  A
C1833      H1841   1.084       .  S
C1834      H1842   1.084       .  S
C1835      C1836   1.209       .  T
C1837      C1838   1.208       .  T
C1843      C1851   1.446       .  S
C1843      C1844   1.403       .  A
C1843      C1848   1.402       .  A
C1844      C1845   1.402       .  A
C1844      H1853   1.083       .  S
C1845      C1846   1.403       .  A
C1845      H1854   1.084       .  S
C1846      C1849   1.445       .  S
C1846      C1847   1.402       .  A
C1847      C1848   1.400       .  A
C1847      H1855   1.083       .  S
C1848      H1856   1.084       .  S
C1849      C1850   1.209       .  T
C1851      C1852   1.210       .  T
C1857      C1865   1.448       .  S
C1857      C1858   1.402       .  A
C1857      C1862   1.403       .  A
C1858      C1859   1.401       .  A
C1858      H1867   1.083       .  S
C1859      C1860   1.402       .  A
C1859      H1868   1.083       .  S
C1860      C1863   1.446       .  S
C1860      C1861   1.403       .  A
C1861      C1862   1.403       .  A
C1861      H1869   1.084       .  S
C1862      H1870   1.084       .  S
C1863      C1864   1.210       .  T
C1865      C1866   1.211       .  T
C1871      C1879   1.448       .  S
C1871      C1872   1.402       .  A
C1871      C1876   1.403       .  A
C1872      C1873   1.401       .  A
C1872      H1881   1.084       .  S
C1873      C1874   1.402       .  A
C1873      H1882   1.084       .  S
C1874      C1877   1.447       .  S
C1874      C1875   1.403       .  A
C1875      C1876   1.403       .  A
C1875      H1883   1.083       .  S
C1876      H1884   1.083       .  S
C1877      C1878   1.210       .  T
C1879      C1880   1.211       .  T
C1885      C1893   1.447       .  S
C1885      C1886   1.403       .  A
C1885      C1890   1.403       .  A
C1886      C1887   1.401       .  A
C1886      H1895   1.084       .  S
C1887      C1888   1.402       .  A
C1887      H1896   1.084       .  S
C1888      C1891   1.446       .  S
C1888      C1889   1.403       .  A
C1889      C1890   1.402       .  A
C1889      H1897   1.084       .  S
C1890      H1898   1.083       .  S
C1891      C1892   1.209       .  T
C1893      C1894   1.211       .  T
C1899      C1907   1.446       .  S
C1899      C1900   1.403       .  A
C1899      C1904   1.402       .  A
C1900      C1901   1.401       .  A
C1900      H1909   1.083       .  S
C1901      C1902   1.402       .  A
C1901      H1910   1.083       .  S
C1902      C1905   1.445       .  S
C1902      C1903   1.403       .  A
C1903      C1904   1.401       .  A
C1903      H1911   1.084       .  S
C1904      H1912   1.083       .  S
C1905      C1906   1.209       .  T
C1907      C1908   1.210       .  T
C1913      C1921   1.447       .  S
C1913      C1914   1.403       .  A
C1913      C1918   1.402       .  A
C1914      C1915   1.402       .  A
C1914      H1923   1.084       .  S
C1915      C1916   1.403       .  A
C1915      H1924   1.083       .  S
C1916      C1919   1.447       .  S
C1916      C1917   1.402       .  A
C1917      C1918   1.401       .  A
C1917      H1925   1.084       .  S
C1918      H1926   1.083       .  S
C1919      C1920   1.210       .  T
C1921      C1922   1.210       .  T
C1927      C1935   1.450       .  S
C1927      C1928   1.403       .  A
C1927      C1932   1.403       .  A
C1928      C1929   1.403       .  A
C1928      H1937   1.083       .  S
C1929      C1930   1.403       .  A
C1929      H1938   1.083       .  S
C1930      C1933   1.450       .  S
C1930      C1931   1.403       .  A
C1931      C1932   1.403       .  A
C1931      H1939   1.084       .  S
C1932      H1940   1.084       .  S
C1933      C1934   1.212       .  T
C1935      C1936   1.212       .  T
C1941      C1949   1.449       .  S
C1941      C1942   1.404       .  A
C1941      C1946   1.402   1_655  A
C1942      C1943   1.404       .  A
C1942      H1951   1.084       .  S
C1943      C1944   1.404   1_655  A
C1943      H1952   1.083       .  S
C1944      C1947   1.449       .  S
C1944      C1945   1.402       .  A
C1945      C1946   1.401       .  A
C1945      H1953   1.084       .  S
C1946      H1954   1.084       .  S
C1947      C1948   1.211       .  T
C1949      C1950   1.211       .  T
C1955      C1963   1.450       .  S
C1955      C1956   1.403       .  A
C1955      C1960   1.403       .  A
C1956      C1957   1.404       .  A
C1956      H1965   1.084       .  S
C1957      C1958   1.404       .  A
C1957      H1966   1.084       .  S
C1958      C1961   1.452       .  S
C1958      C1959   1.403       .  A
C1959      C1960   1.403       .  A
C1959      H1967   1.083       .  S
C1960      H1968   1.083       .  S
C1961      C1962   1.214       .  T
C1963      C1964   1.212       .  T
